Using: /apps/EDAs/synopsys/hspice/hspice/linux/hspice  -i bus32seg16.sp
 ****** HSPICE -- F-2011.09-SP1 32-BIT (Nov 18 2011) linux ******               
  Copyright (C) 2011 Synopsys, Inc. All Rights Reserved.                        
  Unpublished-rights reserved under US copyright laws.
  This program is protected by law and is subject to the
  terms and conditions of the license agreement from Synopsys.
  Use of this program is your acceptance to be bound by the
  license agreement. HSPICE is the trademark of Synopsys, Inc.
  Input File: bus32seg16.sp                                                     
  Command line options: -i bus32seg16.sp
 lic:  
 lic: FLEXlm: v10.8 
 lic: USER:   smic2009             HOSTNAME: dellr900d 
 lic: HOSTID: 0024e85bca9e         PID:      30239 
 lic: Using FLEXlm license file: 
 lic: 5280@su16 
 lic: Checkout 1 hspice 
 lic: License/Maintenance for hspice will expire on 24-mar-2013/2011.09 
 lic: 3(in_use)/140(total) FLOATING license(s) on SERVER su16 
 lic:   
 Init: read install configuration file: /apps/EDAs/synopsys/hspice/hspice/meta.cfg
1****** HSPICE -- F-2011.09-SP1 32-BIT (Nov 18 2011) linux ******               
 ******  
 *a bus interconnect circuit with 34 bus line 16 segment.

  ******  circuit name directory
 circuit number to circuit name directory
   number circuitname                     definition         multiplier
        0 main circuit
        1 x1.                             intercon           1.00 
  **info** (bus32seg16.sp:36) DC voltage reset to initial transient source value              in source        0:iin1                new dc=  0.0000D+00
  
      
 *****************************************************************
 ******  option summary
 ******
 runlvl  = 3         bypass  = 2         
1****** HSPICE -- F-2011.09-SP1 32-BIT (Nov 18 2011) linux ******               
 ******  
 *a bus interconnect circuit with 34 bus line 16 segment.

  ******  operating point information tnom=  25.000 temp=  25.000 *****
 ***** operating point status is voltage   simulation time is     0.     
    node    =voltage      node    =voltage      node    =voltage

 +0:tdn10a1 =   0.      0:tdn10a9 =   0.      0:tdn11a1 =   0.     
 +0:tdn11a9 =   0.      0:tdn12a1 =   0.      0:tdn12a9 =   0.     
 +0:tdn13a1 =   0.      0:tdn13a9 =   0.      0:tdn14a1 =   0.     
 +0:tdn14a9 =   0.      0:tdn15a1 =   0.      0:tdn15a9 =   0.     
 +0:tdn16a1 =   0.      0:tdn16a9 =   0.      0:tdn17a1 =   0.     
 +0:tdn17a9 =   0.      0:tdn18a1 =   0.      0:tdn18a9 =   0.     
 +0:tdn19a1 =   0.      0:tdn19a9 =   0.      0:tdn1a1  =   0.     
 +0:tdn1a9  =   0.      0:tdn20a1 =   0.      0:tdn20a9 =   0.     
 +0:tdn21a1 =   0.      0:tdn21a9 =   0.      0:tdn22a1 =   0.     
 +0:tdn22a9 =   0.      0:tdn23a1 =   0.      0:tdn23a9 =   0.     
 +0:tdn24a1 =   0.      0:tdn24a9 =   0.      0:tdn25a1 =   0.     
 +0:tdn25a9 =   0.      0:tdn26a1 =   0.      0:tdn26a9 =   0.     
 +0:tdn27a1 =   0.      0:tdn27a9 =   0.      0:tdn28a1 =   0.     
 +0:tdn28a9 =   0.      0:tdn29a1 =   0.      0:tdn29a9 =   0.     
 +0:tdn2a1  =   0.      0:tdn2a9  =   0.      0:tdn30a1 =   0.     
 +0:tdn30a9 =   0.      0:tdn31a1 =   0.      0:tdn31a9 =   0.     
 +0:tdn32a1 =   0.      0:tdn32a9 =   0.      0:tdn3a1  =   0.     
 +0:tdn3a9  =   0.      0:tdn4a1  =   0.      0:tdn4a9  =   0.     
 +0:tdn5a1  =   0.      0:tdn5a9  =   0.      0:tdn6a1  =   0.     
 +0:tdn6a9  =   0.      0:tdn7a1  =   0.      0:tdn7a9  =   0.     
 +0:tdn8a1  =   0.      0:tdn8a9  =   0.      0:tdn9a1  =   0.     
 +0:tdn9a9  =   0.      0:tdnga1  =   0.      0:tdnga9  =   0.     
 +0:tdnva1  =   0.      0:tdnva9  =   0.      1:tdn10a10=   0.     
 +1:tdn10a11=   0.      1:tdn10a12=   0.      1:tdn10a13=   0.     
 +1:tdn10a14=   0.      1:tdn10a15=   0.      1:tdn10a16=   0.     
 +1:tdn10a17=   0.      1:tdn10a18=   0.      1:tdn10a19=   0.     
 +1:tdn10a2 =   0.      1:tdn10a20=   0.      1:tdn10a21=   0.     
 +1:tdn10a22=   0.      1:tdn10a23=   0.      1:tdn10a24=   0.     
 +1:tdn10a25=   0.      1:tdn10a26=   0.      1:tdn10a27=   0.     
 +1:tdn10a28=   0.      1:tdn10a29=   0.      1:tdn10a3 =   0.     
 +1:tdn10a30=   0.      1:tdn10a31=   0.      1:tdn10a32=   0.     
 +1:tdn10a4 =   0.      1:tdn10a5 =   0.      1:tdn10a6 =   0.     
 +1:tdn10a7 =   0.      1:tdn10a8 =   0.      1:tdn10a9 =   0.     
 +1:tdn11a10=   0.      1:tdn11a11=   0.      1:tdn11a12=   0.     
 +1:tdn11a13=   0.      1:tdn11a14=   0.      1:tdn11a15=   0.     
 +1:tdn11a16=   0.      1:tdn11a17=   0.      1:tdn11a18=   0.     
 +1:tdn11a19=   0.      1:tdn11a2 =   0.      1:tdn11a20=   0.     
 +1:tdn11a21=   0.      1:tdn11a22=   0.      1:tdn11a23=   0.     
 +1:tdn11a24=   0.      1:tdn11a25=   0.      1:tdn11a26=   0.     
 +1:tdn11a27=   0.      1:tdn11a28=   0.      1:tdn11a29=   0.     
 +1:tdn11a3 =   0.      1:tdn11a30=   0.      1:tdn11a31=   0.     
 +1:tdn11a32=   0.      1:tdn11a4 =   0.      1:tdn11a5 =   0.     
 +1:tdn11a6 =   0.      1:tdn11a7 =   0.      1:tdn11a8 =   0.     
 +1:tdn11a9 =   0.      1:tdn12a10=   0.      1:tdn12a11=   0.     
 +1:tdn12a12=   0.      1:tdn12a13=   0.      1:tdn12a14=   0.     
 +1:tdn12a15=   0.      1:tdn12a16=   0.      1:tdn12a17=   0.     
 +1:tdn12a18=   0.      1:tdn12a19=   0.      1:tdn12a2 =   0.     
 +1:tdn12a20=   0.      1:tdn12a21=   0.      1:tdn12a22=   0.     
 +1:tdn12a23=   0.      1:tdn12a24=   0.      1:tdn12a25=   0.     
 +1:tdn12a26=   0.      1:tdn12a27=   0.      1:tdn12a28=   0.     
 +1:tdn12a29=   0.      1:tdn12a3 =   0.      1:tdn12a30=   0.     
 +1:tdn12a31=   0.      1:tdn12a32=   0.      1:tdn12a4 =   0.     
 +1:tdn12a5 =   0.      1:tdn12a6 =   0.      1:tdn12a7 =   0.     
 +1:tdn12a8 =   0.      1:tdn12a9 =   0.      1:tdn13a10=   0.     
 +1:tdn13a11=   0.      1:tdn13a12=   0.      1:tdn13a13=   0.     
 +1:tdn13a14=   0.      1:tdn13a15=   0.      1:tdn13a16=   0.     
 +1:tdn13a17=   0.      1:tdn13a18=   0.      1:tdn13a19=   0.     
 +1:tdn13a2 =   0.      1:tdn13a20=   0.      1:tdn13a21=   0.     
 +1:tdn13a22=   0.      1:tdn13a23=   0.      1:tdn13a24=   0.     
 +1:tdn13a25=   0.      1:tdn13a26=   0.      1:tdn13a27=   0.     
 +1:tdn13a28=   0.      1:tdn13a29=   0.      1:tdn13a3 =   0.     
 +1:tdn13a30=   0.      1:tdn13a31=   0.      1:tdn13a32=   0.     
 +1:tdn13a4 =   0.      1:tdn13a5 =   0.      1:tdn13a6 =   0.     
 +1:tdn13a7 =   0.      1:tdn13a8 =   0.      1:tdn13a9 =   0.     
 +1:tdn14a10=   0.      1:tdn14a11=   0.      1:tdn14a12=   0.     
 +1:tdn14a13=   0.      1:tdn14a14=   0.      1:tdn14a15=   0.     
 +1:tdn14a16=   0.      1:tdn14a17=   0.      1:tdn14a18=   0.     
 +1:tdn14a19=   0.      1:tdn14a2 =   0.      1:tdn14a20=   0.     
 +1:tdn14a21=   0.      1:tdn14a22=   0.      1:tdn14a23=   0.     
 +1:tdn14a24=   0.      1:tdn14a25=   0.      1:tdn14a26=   0.     
 +1:tdn14a27=   0.      1:tdn14a28=   0.      1:tdn14a29=   0.     
 +1:tdn14a3 =   0.      1:tdn14a30=   0.      1:tdn14a31=   0.     
 +1:tdn14a32=   0.      1:tdn14a4 =   0.      1:tdn14a5 =   0.     
 +1:tdn14a6 =   0.      1:tdn14a7 =   0.      1:tdn14a8 =   0.     
 +1:tdn14a9 =   0.      1:tdn15a10=   0.      1:tdn15a11=   0.     
 +1:tdn15a12=   0.      1:tdn15a13=   0.      1:tdn15a14=   0.     
 +1:tdn15a15=   0.      1:tdn15a16=   0.      1:tdn15a17=   0.     
 +1:tdn15a18=   0.      1:tdn15a19=   0.      1:tdn15a2 =   0.     
 +1:tdn15a20=   0.      1:tdn15a21=   0.      1:tdn15a22=   0.     
 +1:tdn15a23=   0.      1:tdn15a24=   0.      1:tdn15a25=   0.     
 +1:tdn15a26=   0.      1:tdn15a27=   0.      1:tdn15a28=   0.     
 +1:tdn15a29=   0.      1:tdn15a3 =   0.      1:tdn15a30=   0.     
 +1:tdn15a31=   0.      1:tdn15a32=   0.      1:tdn15a4 =   0.     
 +1:tdn15a5 =   0.      1:tdn15a6 =   0.      1:tdn15a7 =   0.     
 +1:tdn15a8 =   0.      1:tdn15a9 =   0.      1:tdn16a10=   0.     
 +1:tdn16a11=   0.      1:tdn16a12=   0.      1:tdn16a13=   0.     
 +1:tdn16a14=   0.      1:tdn16a15=   0.      1:tdn16a16=   0.     
 +1:tdn16a17=   0.      1:tdn16a18=   0.      1:tdn16a19=   0.     
 +1:tdn16a2 =   0.      1:tdn16a20=   0.      1:tdn16a21=   0.     
 +1:tdn16a22=   0.      1:tdn16a23=   0.      1:tdn16a24=   0.     
 +1:tdn16a25=   0.      1:tdn16a26=   0.      1:tdn16a27=   0.     
 +1:tdn16a28=   0.      1:tdn16a29=   0.      1:tdn16a3 =   0.     
 +1:tdn16a30=   0.      1:tdn16a31=   0.      1:tdn16a32=   0.     
 +1:tdn16a4 =   0.      1:tdn16a5 =   0.      1:tdn16a6 =   0.     
 +1:tdn16a7 =   0.      1:tdn16a8 =   0.      1:tdn16a9 =   0.     
 +1:tdn17a10=   0.      1:tdn17a11=   0.      1:tdn17a12=   0.     
 +1:tdn17a13=   0.      1:tdn17a14=   0.      1:tdn17a15=   0.     
 +1:tdn17a16=   0.      1:tdn17a17=   0.      1:tdn17a18=   0.     
 +1:tdn17a19=   0.      1:tdn17a2 =   0.      1:tdn17a20=   0.     
 +1:tdn17a21=   0.      1:tdn17a22=   0.      1:tdn17a23=   0.     
 +1:tdn17a24=   0.      1:tdn17a25=   0.      1:tdn17a26=   0.     
 +1:tdn17a27=   0.      1:tdn17a28=   0.      1:tdn17a29=   0.     
 +1:tdn17a3 =   0.      1:tdn17a30=   0.      1:tdn17a31=   0.     
 +1:tdn17a32=   0.      1:tdn17a4 =   0.      1:tdn17a5 =   0.     
 +1:tdn17a6 =   0.      1:tdn17a7 =   0.      1:tdn17a8 =   0.     
 +1:tdn17a9 =   0.      1:tdn18a10=   0.      1:tdn18a11=   0.     
 +1:tdn18a12=   0.      1:tdn18a13=   0.      1:tdn18a14=   0.     
 +1:tdn18a15=   0.      1:tdn18a16=   0.      1:tdn18a17=   0.     
 +1:tdn18a18=   0.      1:tdn18a19=   0.      1:tdn18a2 =   0.     
 +1:tdn18a20=   0.      1:tdn18a21=   0.      1:tdn18a22=   0.     
 +1:tdn18a23=   0.      1:tdn18a24=   0.      1:tdn18a25=   0.     
 +1:tdn18a26=   0.      1:tdn18a27=   0.      1:tdn18a28=   0.     
 +1:tdn18a29=   0.      1:tdn18a3 =   0.      1:tdn18a30=   0.     
 +1:tdn18a31=   0.      1:tdn18a32=   0.      1:tdn18a4 =   0.     
 +1:tdn18a5 =   0.      1:tdn18a6 =   0.      1:tdn18a7 =   0.     
 +1:tdn18a8 =   0.      1:tdn18a9 =   0.      1:tdn19a10=   0.     
 +1:tdn19a11=   0.      1:tdn19a12=   0.      1:tdn19a13=   0.     
 +1:tdn19a14=   0.      1:tdn19a15=   0.      1:tdn19a16=   0.     
 +1:tdn19a17=   0.      1:tdn19a18=   0.      1:tdn19a19=   0.     
 +1:tdn19a2 =   0.      1:tdn19a20=   0.      1:tdn19a21=   0.     
 +1:tdn19a22=   0.      1:tdn19a23=   0.      1:tdn19a24=   0.     
 +1:tdn19a25=   0.      1:tdn19a26=   0.      1:tdn19a27=   0.     
 +1:tdn19a28=   0.      1:tdn19a29=   0.      1:tdn19a3 =   0.     
 +1:tdn19a30=   0.      1:tdn19a31=   0.      1:tdn19a32=   0.     
 +1:tdn19a4 =   0.      1:tdn19a5 =   0.      1:tdn19a6 =   0.     
 +1:tdn19a7 =   0.      1:tdn19a8 =   0.      1:tdn19a9 =   0.     
 +1:tdn1a10 =   0.      1:tdn1a11 =   0.      1:tdn1a12 =   0.     
 +1:tdn1a13 =   0.      1:tdn1a14 =   0.      1:tdn1a15 =   0.     
 +1:tdn1a16 =   0.      1:tdn1a17 =   0.      1:tdn1a18 =   0.     
 +1:tdn1a19 =   0.      1:tdn1a2  =   0.      1:tdn1a20 =   0.     
 +1:tdn1a21 =   0.      1:tdn1a22 =   0.      1:tdn1a23 =   0.     
 +1:tdn1a24 =   0.      1:tdn1a25 =   0.      1:tdn1a26 =   0.     
 +1:tdn1a27 =   0.      1:tdn1a28 =   0.      1:tdn1a29 =   0.     
 +1:tdn1a3  =   0.      1:tdn1a30 =   0.      1:tdn1a31 =   0.     
 +1:tdn1a32 =   0.      1:tdn1a4  =   0.      1:tdn1a5  =   0.     
 +1:tdn1a6  =   0.      1:tdn1a7  =   0.      1:tdn1a8  =   0.     
 +1:tdn1a9  =   0.      1:tdn20a10=   0.      1:tdn20a11=   0.     
 +1:tdn20a12=   0.      1:tdn20a13=   0.      1:tdn20a14=   0.     
 +1:tdn20a15=   0.      1:tdn20a16=   0.      1:tdn20a17=   0.     
 +1:tdn20a18=   0.      1:tdn20a19=   0.      1:tdn20a2 =   0.     
 +1:tdn20a20=   0.      1:tdn20a21=   0.      1:tdn20a22=   0.     
 +1:tdn20a23=   0.      1:tdn20a24=   0.      1:tdn20a25=   0.     
 +1:tdn20a26=   0.      1:tdn20a27=   0.      1:tdn20a28=   0.     
 +1:tdn20a29=   0.      1:tdn20a3 =   0.      1:tdn20a30=   0.     
 +1:tdn20a31=   0.      1:tdn20a32=   0.      1:tdn20a4 =   0.     
 +1:tdn20a5 =   0.      1:tdn20a6 =   0.      1:tdn20a7 =   0.     
 +1:tdn20a8 =   0.      1:tdn20a9 =   0.      1:tdn21a10=   0.     
 +1:tdn21a11=   0.      1:tdn21a12=   0.      1:tdn21a13=   0.     
 +1:tdn21a14=   0.      1:tdn21a15=   0.      1:tdn21a16=   0.     
 +1:tdn21a17=   0.      1:tdn21a18=   0.      1:tdn21a19=   0.     
 +1:tdn21a2 =   0.      1:tdn21a20=   0.      1:tdn21a21=   0.     
 +1:tdn21a22=   0.      1:tdn21a23=   0.      1:tdn21a24=   0.     
 +1:tdn21a25=   0.      1:tdn21a26=   0.      1:tdn21a27=   0.     
 +1:tdn21a28=   0.      1:tdn21a29=   0.      1:tdn21a3 =   0.     
 +1:tdn21a30=   0.      1:tdn21a31=   0.      1:tdn21a32=   0.     
 +1:tdn21a4 =   0.      1:tdn21a5 =   0.      1:tdn21a6 =   0.     
 +1:tdn21a7 =   0.      1:tdn21a8 =   0.      1:tdn21a9 =   0.     
 +1:tdn22a10=   0.      1:tdn22a11=   0.      1:tdn22a12=   0.     
 +1:tdn22a13=   0.      1:tdn22a14=   0.      1:tdn22a15=   0.     
 +1:tdn22a16=   0.      1:tdn22a17=   0.      1:tdn22a18=   0.     
 +1:tdn22a19=   0.      1:tdn22a2 =   0.      1:tdn22a20=   0.     
 +1:tdn22a21=   0.      1:tdn22a22=   0.      1:tdn22a23=   0.     
 +1:tdn22a24=   0.      1:tdn22a25=   0.      1:tdn22a26=   0.     
 +1:tdn22a27=   0.      1:tdn22a28=   0.      1:tdn22a29=   0.     
 +1:tdn22a3 =   0.      1:tdn22a30=   0.      1:tdn22a31=   0.     
 +1:tdn22a32=   0.      1:tdn22a4 =   0.      1:tdn22a5 =   0.     
 +1:tdn22a6 =   0.      1:tdn22a7 =   0.      1:tdn22a8 =   0.     
 +1:tdn22a9 =   0.      1:tdn23a10=   0.      1:tdn23a11=   0.     
 +1:tdn23a12=   0.      1:tdn23a13=   0.      1:tdn23a14=   0.     
 +1:tdn23a15=   0.      1:tdn23a16=   0.      1:tdn23a17=   0.     
 +1:tdn23a18=   0.      1:tdn23a19=   0.      1:tdn23a2 =   0.     
 +1:tdn23a20=   0.      1:tdn23a21=   0.      1:tdn23a22=   0.     
 +1:tdn23a23=   0.      1:tdn23a24=   0.      1:tdn23a25=   0.     
 +1:tdn23a26=   0.      1:tdn23a27=   0.      1:tdn23a28=   0.     
 +1:tdn23a29=   0.      1:tdn23a3 =   0.      1:tdn23a30=   0.     
 +1:tdn23a31=   0.      1:tdn23a32=   0.      1:tdn23a4 =   0.     
 +1:tdn23a5 =   0.      1:tdn23a6 =   0.      1:tdn23a7 =   0.     
 +1:tdn23a8 =   0.      1:tdn23a9 =   0.      1:tdn24a10=   0.     
 +1:tdn24a11=   0.      1:tdn24a12=   0.      1:tdn24a13=   0.     
 +1:tdn24a14=   0.      1:tdn24a15=   0.      1:tdn24a16=   0.     
 +1:tdn24a17=   0.      1:tdn24a18=   0.      1:tdn24a19=   0.     
 +1:tdn24a2 =   0.      1:tdn24a20=   0.      1:tdn24a21=   0.     
 +1:tdn24a22=   0.      1:tdn24a23=   0.      1:tdn24a24=   0.     
 +1:tdn24a25=   0.      1:tdn24a26=   0.      1:tdn24a27=   0.     
 +1:tdn24a28=   0.      1:tdn24a29=   0.      1:tdn24a3 =   0.     
 +1:tdn24a30=   0.      1:tdn24a31=   0.      1:tdn24a32=   0.     
 +1:tdn24a4 =   0.      1:tdn24a5 =   0.      1:tdn24a6 =   0.     
 +1:tdn24a7 =   0.      1:tdn24a8 =   0.      1:tdn24a9 =   0.     
 +1:tdn25a10=   0.      1:tdn25a11=   0.      1:tdn25a12=   0.     
 +1:tdn25a13=   0.      1:tdn25a14=   0.      1:tdn25a15=   0.     
 +1:tdn25a16=   0.      1:tdn25a17=   0.      1:tdn25a18=   0.     
 +1:tdn25a19=   0.      1:tdn25a2 =   0.      1:tdn25a20=   0.     
 +1:tdn25a21=   0.      1:tdn25a22=   0.      1:tdn25a23=   0.     
 +1:tdn25a24=   0.      1:tdn25a25=   0.      1:tdn25a26=   0.     
 +1:tdn25a27=   0.      1:tdn25a28=   0.      1:tdn25a29=   0.     
 +1:tdn25a3 =   0.      1:tdn25a30=   0.      1:tdn25a31=   0.     
 +1:tdn25a32=   0.      1:tdn25a4 =   0.      1:tdn25a5 =   0.     
 +1:tdn25a6 =   0.      1:tdn25a7 =   0.      1:tdn25a8 =   0.     
 +1:tdn25a9 =   0.      1:tdn26a10=   0.      1:tdn26a11=   0.     
 +1:tdn26a12=   0.      1:tdn26a13=   0.      1:tdn26a14=   0.     
 +1:tdn26a15=   0.      1:tdn26a16=   0.      1:tdn26a17=   0.     
 +1:tdn26a18=   0.      1:tdn26a19=   0.      1:tdn26a2 =   0.     
 +1:tdn26a20=   0.      1:tdn26a21=   0.      1:tdn26a22=   0.     
 +1:tdn26a23=   0.      1:tdn26a24=   0.      1:tdn26a25=   0.     
 +1:tdn26a26=   0.      1:tdn26a27=   0.      1:tdn26a28=   0.     
 +1:tdn26a29=   0.      1:tdn26a3 =   0.      1:tdn26a30=   0.     
 +1:tdn26a31=   0.      1:tdn26a32=   0.      1:tdn26a4 =   0.     
 +1:tdn26a5 =   0.      1:tdn26a6 =   0.      1:tdn26a7 =   0.     
 +1:tdn26a8 =   0.      1:tdn26a9 =   0.      1:tdn27a10=   0.     
 +1:tdn27a11=   0.      1:tdn27a12=   0.      1:tdn27a13=   0.     
 +1:tdn27a14=   0.      1:tdn27a15=   0.      1:tdn27a16=   0.     
 +1:tdn27a17=   0.      1:tdn27a18=   0.      1:tdn27a19=   0.     
 +1:tdn27a2 =   0.      1:tdn27a20=   0.      1:tdn27a21=   0.     
 +1:tdn27a22=   0.      1:tdn27a23=   0.      1:tdn27a24=   0.     
 +1:tdn27a25=   0.      1:tdn27a26=   0.      1:tdn27a27=   0.     
 +1:tdn27a28=   0.      1:tdn27a29=   0.      1:tdn27a3 =   0.     
 +1:tdn27a30=   0.      1:tdn27a31=   0.      1:tdn27a32=   0.     
 +1:tdn27a4 =   0.      1:tdn27a5 =   0.      1:tdn27a6 =   0.     
 +1:tdn27a7 =   0.      1:tdn27a8 =   0.      1:tdn27a9 =   0.     
 +1:tdn28a10=   0.      1:tdn28a11=   0.      1:tdn28a12=   0.     
 +1:tdn28a13=   0.      1:tdn28a14=   0.      1:tdn28a15=   0.     
 +1:tdn28a16=   0.      1:tdn28a17=   0.      1:tdn28a18=   0.     
 +1:tdn28a19=   0.      1:tdn28a2 =   0.      1:tdn28a20=   0.     
 +1:tdn28a21=   0.      1:tdn28a22=   0.      1:tdn28a23=   0.     
 +1:tdn28a24=   0.      1:tdn28a25=   0.      1:tdn28a26=   0.     
 +1:tdn28a27=   0.      1:tdn28a28=   0.      1:tdn28a29=   0.     
 +1:tdn28a3 =   0.      1:tdn28a30=   0.      1:tdn28a31=   0.     
 +1:tdn28a32=   0.      1:tdn28a4 =   0.      1:tdn28a5 =   0.     
 +1:tdn28a6 =   0.      1:tdn28a7 =   0.      1:tdn28a8 =   0.     
 +1:tdn28a9 =   0.      1:tdn29a10=   0.      1:tdn29a11=   0.     
 +1:tdn29a12=   0.      1:tdn29a13=   0.      1:tdn29a14=   0.     
 +1:tdn29a15=   0.      1:tdn29a16=   0.      1:tdn29a17=   0.     
 +1:tdn29a18=   0.      1:tdn29a19=   0.      1:tdn29a2 =   0.     
 +1:tdn29a20=   0.      1:tdn29a21=   0.      1:tdn29a22=   0.     
 +1:tdn29a23=   0.      1:tdn29a24=   0.      1:tdn29a25=   0.     
 +1:tdn29a26=   0.      1:tdn29a27=   0.      1:tdn29a28=   0.     
 +1:tdn29a29=   0.      1:tdn29a3 =   0.      1:tdn29a30=   0.     
 +1:tdn29a31=   0.      1:tdn29a32=   0.      1:tdn29a4 =   0.     
 +1:tdn29a5 =   0.      1:tdn29a6 =   0.      1:tdn29a7 =   0.     
 +1:tdn29a8 =   0.      1:tdn29a9 =   0.      1:tdn2a10 =   0.     
 +1:tdn2a11 =   0.      1:tdn2a12 =   0.      1:tdn2a13 =   0.     
 +1:tdn2a14 =   0.      1:tdn2a15 =   0.      1:tdn2a16 =   0.     
 +1:tdn2a17 =   0.      1:tdn2a18 =   0.      1:tdn2a19 =   0.     
 +1:tdn2a2  =   0.      1:tdn2a20 =   0.      1:tdn2a21 =   0.     
 +1:tdn2a22 =   0.      1:tdn2a23 =   0.      1:tdn2a24 =   0.     
 +1:tdn2a25 =   0.      1:tdn2a26 =   0.      1:tdn2a27 =   0.     
 +1:tdn2a28 =   0.      1:tdn2a29 =   0.      1:tdn2a3  =   0.     
 +1:tdn2a30 =   0.      1:tdn2a31 =   0.      1:tdn2a32 =   0.     
 +1:tdn2a4  =   0.      1:tdn2a5  =   0.      1:tdn2a6  =   0.     
 +1:tdn2a7  =   0.      1:tdn2a8  =   0.      1:tdn2a9  =   0.     
 +1:tdn30a10=   0.      1:tdn30a11=   0.      1:tdn30a12=   0.     
 +1:tdn30a13=   0.      1:tdn30a14=   0.      1:tdn30a15=   0.     
 +1:tdn30a16=   0.      1:tdn30a17=   0.      1:tdn30a18=   0.     
 +1:tdn30a19=   0.      1:tdn30a2 =   0.      1:tdn30a20=   0.     
 +1:tdn30a21=   0.      1:tdn30a22=   0.      1:tdn30a23=   0.     
 +1:tdn30a24=   0.      1:tdn30a25=   0.      1:tdn30a26=   0.     
 +1:tdn30a27=   0.      1:tdn30a28=   0.      1:tdn30a29=   0.     
 +1:tdn30a3 =   0.      1:tdn30a30=   0.      1:tdn30a31=   0.     
 +1:tdn30a32=   0.      1:tdn30a4 =   0.      1:tdn30a5 =   0.     
 +1:tdn30a6 =   0.      1:tdn30a7 =   0.      1:tdn30a8 =   0.     
 +1:tdn30a9 =   0.      1:tdn31a10=   0.      1:tdn31a11=   0.     
 +1:tdn31a12=   0.      1:tdn31a13=   0.      1:tdn31a14=   0.     
 +1:tdn31a15=   0.      1:tdn31a16=   0.      1:tdn31a17=   0.     
 +1:tdn31a18=   0.      1:tdn31a19=   0.      1:tdn31a2 =   0.     
 +1:tdn31a20=   0.      1:tdn31a21=   0.      1:tdn31a22=   0.     
 +1:tdn31a23=   0.      1:tdn31a24=   0.      1:tdn31a25=   0.     
 +1:tdn31a26=   0.      1:tdn31a27=   0.      1:tdn31a28=   0.     
 +1:tdn31a29=   0.      1:tdn31a3 =   0.      1:tdn31a30=   0.     
 +1:tdn31a31=   0.      1:tdn31a32=   0.      1:tdn31a4 =   0.     
 +1:tdn31a5 =   0.      1:tdn31a6 =   0.      1:tdn31a7 =   0.     
 +1:tdn31a8 =   0.      1:tdn31a9 =   0.      1:tdn32a10=   0.     
 +1:tdn32a11=   0.      1:tdn32a12=   0.      1:tdn32a13=   0.     
 +1:tdn32a14=   0.      1:tdn32a15=   0.      1:tdn32a16=   0.     
 +1:tdn32a17=   0.      1:tdn32a18=   0.      1:tdn32a19=   0.     
 +1:tdn32a2 =   0.      1:tdn32a20=   0.      1:tdn32a21=   0.     
 +1:tdn32a22=   0.      1:tdn32a23=   0.      1:tdn32a24=   0.     
 +1:tdn32a25=   0.      1:tdn32a26=   0.      1:tdn32a27=   0.     
 +1:tdn32a28=   0.      1:tdn32a29=   0.      1:tdn32a3 =   0.     
 +1:tdn32a30=   0.      1:tdn32a31=   0.      1:tdn32a32=   0.     
 +1:tdn32a4 =   0.      1:tdn32a5 =   0.      1:tdn32a6 =   0.     
 +1:tdn32a7 =   0.      1:tdn32a8 =   0.      1:tdn32a9 =   0.     
 +1:tdn3a10 =   0.      1:tdn3a11 =   0.      1:tdn3a12 =   0.     
 +1:tdn3a13 =   0.      1:tdn3a14 =   0.      1:tdn3a15 =   0.     
 +1:tdn3a16 =   0.      1:tdn3a17 =   0.      1:tdn3a18 =   0.     
 +1:tdn3a19 =   0.      1:tdn3a2  =   0.      1:tdn3a20 =   0.     
 +1:tdn3a21 =   0.      1:tdn3a22 =   0.      1:tdn3a23 =   0.     
 +1:tdn3a24 =   0.      1:tdn3a25 =   0.      1:tdn3a26 =   0.     
 +1:tdn3a27 =   0.      1:tdn3a28 =   0.      1:tdn3a29 =   0.     
 +1:tdn3a3  =   0.      1:tdn3a30 =   0.      1:tdn3a31 =   0.     
 +1:tdn3a32 =   0.      1:tdn3a4  =   0.      1:tdn3a5  =   0.     
 +1:tdn3a6  =   0.      1:tdn3a7  =   0.      1:tdn3a8  =   0.     
 +1:tdn3a9  =   0.      1:tdn4a10 =   0.      1:tdn4a11 =   0.     
 +1:tdn4a12 =   0.      1:tdn4a13 =   0.      1:tdn4a14 =   0.     
 +1:tdn4a15 =   0.      1:tdn4a16 =   0.      1:tdn4a17 =   0.     
 +1:tdn4a18 =   0.      1:tdn4a19 =   0.      1:tdn4a2  =   0.     
 +1:tdn4a20 =   0.      1:tdn4a21 =   0.      1:tdn4a22 =   0.     
 +1:tdn4a23 =   0.      1:tdn4a24 =   0.      1:tdn4a25 =   0.     
 +1:tdn4a26 =   0.      1:tdn4a27 =   0.      1:tdn4a28 =   0.     
 +1:tdn4a29 =   0.      1:tdn4a3  =   0.      1:tdn4a30 =   0.     
 +1:tdn4a31 =   0.      1:tdn4a32 =   0.      1:tdn4a4  =   0.     
 +1:tdn4a5  =   0.      1:tdn4a6  =   0.      1:tdn4a7  =   0.     
 +1:tdn4a8  =   0.      1:tdn4a9  =   0.      1:tdn5a10 =   0.     
 +1:tdn5a11 =   0.      1:tdn5a12 =   0.      1:tdn5a13 =   0.     
 +1:tdn5a14 =   0.      1:tdn5a15 =   0.      1:tdn5a16 =   0.     
 +1:tdn5a17 =   0.      1:tdn5a18 =   0.      1:tdn5a19 =   0.     
 +1:tdn5a2  =   0.      1:tdn5a20 =   0.      1:tdn5a21 =   0.     
 +1:tdn5a22 =   0.      1:tdn5a23 =   0.      1:tdn5a24 =   0.     
 +1:tdn5a25 =   0.      1:tdn5a26 =   0.      1:tdn5a27 =   0.     
 +1:tdn5a28 =   0.      1:tdn5a29 =   0.      1:tdn5a3  =   0.     
 +1:tdn5a30 =   0.      1:tdn5a31 =   0.      1:tdn5a32 =   0.     
 +1:tdn5a4  =   0.      1:tdn5a5  =   0.      1:tdn5a6  =   0.     
 +1:tdn5a7  =   0.      1:tdn5a8  =   0.      1:tdn5a9  =   0.     
 +1:tdn6a10 =   0.      1:tdn6a11 =   0.      1:tdn6a12 =   0.     
 +1:tdn6a13 =   0.      1:tdn6a14 =   0.      1:tdn6a15 =   0.     
 +1:tdn6a16 =   0.      1:tdn6a17 =   0.      1:tdn6a18 =   0.     
 +1:tdn6a19 =   0.      1:tdn6a2  =   0.      1:tdn6a20 =   0.     
 +1:tdn6a21 =   0.      1:tdn6a22 =   0.      1:tdn6a23 =   0.     
 +1:tdn6a24 =   0.      1:tdn6a25 =   0.      1:tdn6a26 =   0.     
 +1:tdn6a27 =   0.      1:tdn6a28 =   0.      1:tdn6a29 =   0.     
 +1:tdn6a3  =   0.      1:tdn6a30 =   0.      1:tdn6a31 =   0.     
 +1:tdn6a32 =   0.      1:tdn6a4  =   0.      1:tdn6a5  =   0.     
 +1:tdn6a6  =   0.      1:tdn6a7  =   0.      1:tdn6a8  =   0.     
 +1:tdn6a9  =   0.      1:tdn7a10 =   0.      1:tdn7a11 =   0.     
 +1:tdn7a12 =   0.      1:tdn7a13 =   0.      1:tdn7a14 =   0.     
 +1:tdn7a15 =   0.      1:tdn7a16 =   0.      1:tdn7a17 =   0.     
 +1:tdn7a18 =   0.      1:tdn7a19 =   0.      1:tdn7a2  =   0.     
 +1:tdn7a20 =   0.      1:tdn7a21 =   0.      1:tdn7a22 =   0.     
 +1:tdn7a23 =   0.      1:tdn7a24 =   0.      1:tdn7a25 =   0.     
 +1:tdn7a26 =   0.      1:tdn7a27 =   0.      1:tdn7a28 =   0.     
 +1:tdn7a29 =   0.      1:tdn7a3  =   0.      1:tdn7a30 =   0.     
 +1:tdn7a31 =   0.      1:tdn7a32 =   0.      1:tdn7a4  =   0.     
 +1:tdn7a5  =   0.      1:tdn7a6  =   0.      1:tdn7a7  =   0.     
 +1:tdn7a8  =   0.      1:tdn7a9  =   0.      1:tdn8a10 =   0.     
 +1:tdn8a11 =   0.      1:tdn8a12 =   0.      1:tdn8a13 =   0.     
 +1:tdn8a14 =   0.      1:tdn8a15 =   0.      1:tdn8a16 =   0.     
 +1:tdn8a17 =   0.      1:tdn8a18 =   0.      1:tdn8a19 =   0.     
 +1:tdn8a2  =   0.      1:tdn8a20 =   0.      1:tdn8a21 =   0.     
 +1:tdn8a22 =   0.      1:tdn8a23 =   0.      1:tdn8a24 =   0.     
 +1:tdn8a25 =   0.      1:tdn8a26 =   0.      1:tdn8a27 =   0.     
 +1:tdn8a28 =   0.      1:tdn8a29 =   0.      1:tdn8a3  =   0.     
 +1:tdn8a30 =   0.      1:tdn8a31 =   0.      1:tdn8a32 =   0.     
 +1:tdn8a4  =   0.      1:tdn8a5  =   0.      1:tdn8a6  =   0.     
 +1:tdn8a7  =   0.      1:tdn8a8  =   0.      1:tdn8a9  =   0.     
 +1:tdn9a10 =   0.      1:tdn9a11 =   0.      1:tdn9a12 =   0.     
 +1:tdn9a13 =   0.      1:tdn9a14 =   0.      1:tdn9a15 =   0.     
 +1:tdn9a16 =   0.      1:tdn9a17 =   0.      1:tdn9a18 =   0.     
 +1:tdn9a19 =   0.      1:tdn9a2  =   0.      1:tdn9a20 =   0.     
 +1:tdn9a21 =   0.      1:tdn9a22 =   0.      1:tdn9a23 =   0.     
 +1:tdn9a24 =   0.      1:tdn9a25 =   0.      1:tdn9a26 =   0.     
 +1:tdn9a27 =   0.      1:tdn9a28 =   0.      1:tdn9a29 =   0.     
 +1:tdn9a3  =   0.      1:tdn9a30 =   0.      1:tdn9a31 =   0.     
 +1:tdn9a32 =   0.      1:tdn9a4  =   0.      1:tdn9a5  =   0.     
 +1:tdn9a6  =   0.      1:tdn9a7  =   0.      1:tdn9a8  =   0.     
 +1:tdn9a9  =   0.      1:tdnga10 =   0.      1:tdnga11 =   0.     
 +1:tdnga12 =   0.      1:tdnga13 =   0.      1:tdnga14 =   0.     
 +1:tdnga15 =   0.      1:tdnga16 =   0.      1:tdnga17 =   0.     
 +1:tdnga18 =   0.      1:tdnga19 =   0.      1:tdnga2  =   0.     
 +1:tdnga20 =   0.      1:tdnga21 =   0.      1:tdnga22 =   0.     
 +1:tdnga23 =   0.      1:tdnga24 =   0.      1:tdnga25 =   0.     
 +1:tdnga26 =   0.      1:tdnga27 =   0.      1:tdnga28 =   0.     
 +1:tdnga29 =   0.      1:tdnga3  =   0.      1:tdnga30 =   0.     
 +1:tdnga31 =   0.      1:tdnga32 =   0.      1:tdnga4  =   0.     
 +1:tdnga5  =   0.      1:tdnga6  =   0.      1:tdnga7  =   0.     
 +1:tdnga8  =   0.      1:tdnga9  =   0.      1:tdnva10 =   0.     
 +1:tdnva11 =   0.      1:tdnva12 =   0.      1:tdnva13 =   0.     
 +1:tdnva14 =   0.      1:tdnva15 =   0.      1:tdnva16 =   0.     
 +1:tdnva17 =   0.      1:tdnva18 =   0.      1:tdnva19 =   0.     
 +1:tdnva2  =   0.      1:tdnva20 =   0.      1:tdnva21 =   0.     
 +1:tdnva22 =   0.      1:tdnva23 =   0.      1:tdnva24 =   0.     
 +1:tdnva25 =   0.      1:tdnva26 =   0.      1:tdnva27 =   0.     
 +1:tdnva28 =   0.      1:tdnva29 =   0.      1:tdnva3  =   0.     
 +1:tdnva30 =   0.      1:tdnva31 =   0.      1:tdnva32 =   0.     
 +1:tdnva4  =   0.      1:tdnva5  =   0.      1:tdnva6  =   0.     
 +1:tdnva7  =   0.      1:tdnva8  =   0.      1:tdnva9  =   0.     

 ******  
 *a bus interconnect circuit with 34 bus line 16 segment.

  ******  transient analysis tnom=  25.000 temp=  25.000 *****
x

        time    voltage      voltage      voltage      voltage    
                  tdn1a9       tdn2a9       tdn3a9       tdn4a9   
    0.            0.           0.           0.           0.       
    1.00000p      0.           0.           0.           0.       
    2.00000p      0.           0.           0.           0.       
    3.00000p      0.           0.           0.           0.       
    4.00000p      0.           0.           0.           0.       
    5.00000p      0.           0.           0.           0.       
    6.00000p      0.           0.           0.           0.       
    7.00000p      0.           0.           0.           0.       
    8.00000p      0.           0.           0.           0.       
    9.00000p      0.           0.           0.           0.       
   10.00000p      0.           0.           0.           0.       
   11.00000p      0.           0.           0.           0.       
   12.00000p      0.           0.           0.           0.       
   13.00000p      0.           0.           0.           0.       
   14.00000p      0.           0.           0.           0.       
   15.00000p      0.           0.           0.           0.       
   16.00000p      0.           0.           0.           0.       
   17.00000p      0.           0.           0.           0.       
   18.00000p      0.           0.           0.           0.       
   19.00000p      0.           0.           0.           0.       
   20.00000p      0.           0.           0.           0.       
   21.00000p      0.           0.           0.           0.       
   22.00000p      0.           0.           0.           0.       
   23.00000p      0.           0.           0.           0.       
   24.00000p      0.           0.           0.           0.       
   25.00000p      0.           0.           0.           0.       
   26.00000p      0.           0.           0.           0.       
   27.00000p      0.           0.           0.           0.       
   28.00000p      0.           0.           0.           0.       
   29.00000p      0.           0.           0.           0.       
   30.00000p      0.           0.           0.           0.       
   31.00000p      0.           0.           0.           0.       
   32.00000p      0.           0.           0.           0.       
   33.00000p      0.           0.           0.           0.       
   34.00000p      0.           0.           0.           0.       
   35.00000p      0.           0.           0.           0.       
   36.00000p      0.           0.           0.           0.       
   37.00000p      0.           0.           0.           0.       
   38.00000p      0.           0.           0.           0.       
   39.00000p      0.           0.           0.           0.       
   40.00000p      0.           0.           0.           0.       
   41.00000p      0.           0.           0.           0.       
   42.00000p      0.           0.           0.           0.       
   43.00000p      0.           0.           0.           0.       
   44.00000p      0.           0.           0.           0.       
   45.00000p      0.           0.           0.           0.       
   46.00000p      0.           0.           0.           0.       
   47.00000p      0.           0.           0.           0.       
   48.00000p      0.           0.           0.           0.       
   49.00000p      0.           0.           0.           0.       
   50.00000p      0.           0.           0.           0.       
   51.00000p    -42.8836m    -42.8836m    -42.8836m    -42.8836m  
   52.00000p    -85.7672m    -85.7672m    -85.7672m    -85.7672m  
   53.00000p   -128.6508m   -128.6508m   -128.6508m   -128.6508m  
   54.00000p   -171.5344m   -171.5344m   -171.5344m   -171.5344m  
   55.00000p   -214.4180m   -214.4180m   -214.4180m   -214.4180m  
   56.00000p   -257.3016m   -257.3016m   -257.3016m   -257.3016m  
   57.00000p   -300.1852m   -300.1852m   -300.1852m   -300.1852m  
   58.00000p   -344.1578m   -344.1577m   -344.1578m   -344.1578m  
   59.00000p   -389.2194m   -389.2193m   -389.2193m   -389.2193m  
   60.00000p   -434.2810m   -434.2808m   -434.2809m   -434.2809m  
   61.00000p   -479.3426m   -479.3423m   -479.3424m   -479.3424m  
   62.00000p   -524.4042m   -524.4038m   -524.4040m   -524.4040m  
   63.00000p   -569.4658m   -569.4654m   -569.4656m   -569.4655m  
   64.00000p   -614.5274m   -614.5269m   -614.5271m   -614.5271m  
   65.00000p   -659.5890m   -659.5884m   -659.5887m   -659.5886m  
   66.00000p   -704.6506m   -704.6499m   -704.6502m   -704.6502m  
   67.00000p   -749.7122m   -749.7115m   -749.7118m   -749.7117m  
   68.00000p   -794.7739m   -794.7730m   -794.7733m   -794.7733m  
   69.00000p   -839.8355m   -839.8345m   -839.8349m   -839.8348m  
   70.00000p   -884.8971m   -884.8960m   -884.8965m   -884.8964m  
   71.00000p   -929.9587m   -929.9576m   -929.9580m   -929.9579m  
   72.00000p   -975.0203m   -975.0191m   -975.0196m   -975.0195m  
   73.00000p     -1.0201      -1.0201      -1.0201      -1.0201   
   74.00000p     -1.0651      -1.0651      -1.0651      -1.0651   
   75.00000p     -1.1103      -1.1103      -1.1103      -1.1103   
   76.00000p     -1.1572      -1.1572      -1.1572      -1.1572   
   77.00000p     -1.2041      -1.2041      -1.2041      -1.2041   
   78.00000p     -1.2510      -1.2510      -1.2510      -1.2510   
   79.00000p     -1.2979      -1.2979      -1.2979      -1.2979   
   80.00000p     -1.3448      -1.3448      -1.3448      -1.3448   
   81.00000p     -1.3917      -1.3916      -1.3917      -1.3917   
   82.00000p     -1.4386      -1.4385      -1.4386      -1.4386   
   83.00000p     -1.4855      -1.4854      -1.4854      -1.4854   
   84.00000p     -1.5324      -1.5323      -1.5323      -1.5323   
   85.00000p     -1.5793      -1.5792      -1.5792      -1.5792   
   86.00000p     -1.6262      -1.6261      -1.6261      -1.6261   
   87.00000p     -1.6731      -1.6730      -1.6730      -1.6730   
   88.00000p     -1.7200      -1.7199      -1.7199      -1.7199   
   89.00000p     -1.7669      -1.7667      -1.7668      -1.7668   
   90.00000p     -1.8138      -1.8136      -1.8137      -1.8137   
   91.00000p     -1.8607      -1.8605      -1.8606      -1.8606   
   92.00000p     -1.9076      -1.9074      -1.9075      -1.9075   
   93.00000p     -1.9545      -1.9543      -1.9544      -1.9544   
   94.00000p     -2.0014      -2.0012      -2.0012      -2.0012   
   95.00000p     -2.0483      -2.0481      -2.0481      -2.0481   
   96.00000p     -2.0952      -2.0950      -2.0950      -2.0950   
   97.00000p     -2.1421      -2.1418      -2.1419      -2.1419   
   98.00000p     -2.1890      -2.1887      -2.1888      -2.1888   
   99.00000p     -2.2359      -2.2356      -2.2357      -2.2357   
  100.00000p     -2.2828      -2.2825      -2.2826      -2.2826   
  101.00000p     -2.2896      -2.2884      -2.2885      -2.2885   
  102.00000p     -2.2963      -2.2943      -2.2944      -2.2945   
  103.00000p     -2.3030      -2.3003      -2.3003      -2.3004   
  104.00000p     -2.3098      -2.3062      -2.3062      -2.3063   
  105.00000p     -2.3165      -2.3121      -2.3122      -2.3123   
  106.00000p     -2.3233      -2.3180      -2.3181      -2.3182   
  107.00000p     -2.3300      -2.3239      -2.3240      -2.3241   
  108.00000p     -2.3368      -2.3299      -2.3299      -2.3301   
  109.00000p     -2.3435      -2.3358      -2.3358      -2.3360   
  110.00000p     -2.3503      -2.3417      -2.3417      -2.3419   
  111.00000p     -2.3570      -2.3476      -2.3476      -2.3479   
  112.00000p     -2.3637      -2.3535      -2.3535      -2.3538   
  113.00000p     -2.3705      -2.3595      -2.3595      -2.3598   
  114.00000p     -2.3772      -2.3654      -2.3654      -2.3657   
  115.00000p     -2.3840      -2.3713      -2.3713      -2.3716   
  116.00000p     -2.3907      -2.3772      -2.3772      -2.3776   
  117.00000p     -2.3975      -2.3831      -2.3831      -2.3835   
  118.00000p     -2.4042      -2.3891      -2.3890      -2.3894   
  119.00000p     -2.4109      -2.3950      -2.3949      -2.3954   
  120.00000p     -2.4177      -2.4009      -2.4008      -2.4013   
  121.00000p     -2.4244      -2.4068      -2.4068      -2.4072   
  122.00000p     -2.4246      -2.4062      -2.4061      -2.4066   
  123.00000p     -2.3920      -2.3725      -2.3724      -2.3730   
  124.00000p     -2.3595      -2.3389      -2.3388      -2.3393   
  125.00000p     -2.3269      -2.3052      -2.3051      -2.3057   
  126.00000p     -2.2943      -2.2716      -2.2715      -2.2721   
  127.00000p     -2.2618      -2.2380      -2.2378      -2.2385   
  128.00000p     -2.2292      -2.2043      -2.2042      -2.2048   
  129.00000p     -2.1966      -2.1707      -2.1705      -2.1712   
  130.00000p     -2.1640      -2.1370      -2.1369      -2.1376   
  131.00000p     -2.1315      -2.1034      -2.1032      -2.1040   
  132.00000p     -2.0989      -2.0698      -2.0696      -2.0704   
  133.00000p     -2.2023      -2.1713      -2.1711      -2.1719   
  134.00000p     -2.3418      -2.3089      -2.3086      -2.3095   
  135.00000p     -2.4814      -2.4464      -2.4461      -2.4470   
  136.00000p     -2.6210      -2.5840      -2.5836      -2.5846   
  137.00000p     -2.7606      -2.7216      -2.7211      -2.7222   
  138.00000p     -2.9002      -2.8591      -2.8586      -2.8598   
  139.00000p     -3.0398      -2.9967      -2.9961      -2.9973   
  140.00000p     -3.1794      -3.1343      -3.1337      -3.1349   
  141.00000p     -3.1005      -3.0532      -3.0525      -3.0538   
  142.00000p     -2.7925      -2.7426      -2.7418      -2.7432   
  143.00000p     -2.4844      -2.4320      -2.4312      -2.4326   
  144.00000p     -2.1764      -2.1214      -2.1205      -2.1220   
  145.00000p     -1.8683      -1.8108      -1.8099      -1.8114   
  146.00000p     -1.5603      -1.5003      -1.4992      -1.5009   
  147.00000p     -1.2522      -1.1897      -1.1885      -1.1903   
  148.00000p   -944.1816m   -879.1060m   -877.8758m   -879.6863m  
  149.00000p   -636.1321m   -568.5279m   -567.2171m   -569.0993m  
  150.00000p   -328.0826m   -257.9497m   -256.5585m   -258.5124m  
  151.00000p   -534.8016m   -460.7134m   -459.1148m   -461.1811m  
  152.00000p   -842.3759m   -764.0530m   -762.2222m   -764.4088m  
  153.00000p     -1.1500      -1.0674      -1.0653      -1.0676   
  154.00000p     -1.4575      -1.3707      -1.3684      -1.3709   
  155.00000p     -1.7651      -1.6741      -1.6715      -1.6741   
  156.00000p     -2.0727      -1.9774      -1.9747      -1.9773   
  157.00000p     -2.3802      -2.2808      -2.2778      -2.2805   
  158.00000p     -2.6878      -2.5841      -2.5809      -2.5838   
  159.00000p     -2.9954      -2.8874      -2.8840      -2.8870   
  160.00000p     -3.3030      -3.1908      -3.1871      -3.1902   
  161.00000p     -3.6105      -3.4941      -3.4902      -3.4935   
  162.00000p     -3.9181      -3.7974      -3.7933      -3.7967   
  163.00000p     -4.2257      -4.1008      -4.0964      -4.0999   
  164.00000p     -4.5333      -4.4041      -4.3995      -4.4031   
  165.00000p     -4.6818      -4.5478      -4.5428      -4.5466   
  166.00000p     -4.3295      -4.1886      -4.1830      -4.1870   
  167.00000p     -3.9771      -3.8293      -3.8232      -3.8274   
  168.00000p     -3.6248      -3.4701      -3.4634      -3.4677   
  169.00000p     -3.2725      -3.1109      -3.1036      -3.1081   
  170.00000p     -2.9202      -2.7517      -2.7438      -2.7485   
  171.00000p     -2.5679      -2.3925      -2.3840      -2.3889   
  172.00000p     -2.2156      -2.0333      -2.0242      -2.0292   
  173.00000p     -1.8632      -1.6741      -1.6643      -1.6696   
  174.00000p     -1.5109      -1.3148      -1.3045      -1.3100   
  175.00000p     -1.1586    -955.6351m   -944.7219m   -950.3838m  
  176.00000p   -806.2819m   -596.4220m   -584.9113m   -590.7626m  
  177.00000p   -601.0090m   -383.4983m   -371.2143m   -377.2661m  
  178.00000p   -934.2850m   -706.3545m   -692.6537m   -698.9470m  
  179.00000p     -1.2676      -1.0292      -1.0141      -1.0206   
  180.00000p     -1.6008      -1.3521      -1.3355      -1.3423   
  181.00000p     -1.9341      -1.6749      -1.6570      -1.6640   
  182.00000p     -2.2674      -1.9978      -1.9784      -1.9857   
  183.00000p     -2.6007      -2.3206      -2.2999      -2.3074   
  184.00000p     -2.9339      -2.6435      -2.6213      -2.6290   
  185.00000p     -3.2672      -2.9663      -2.9427      -2.9507   
  186.00000p     -3.6005      -3.2892      -3.2642      -3.2724   
  187.00000p     -3.9338      -3.6121      -3.5856      -3.5941   
  188.00000p     -4.2670      -3.9349      -3.9070      -3.9158   
  189.00000p     -4.6003      -4.2578      -4.2285      -4.2374   
  190.00000p     -4.9025      -4.5493      -4.5185      -4.5277   
  191.00000p     -4.6026      -4.2347      -4.2009      -4.2102   
  192.00000p     -4.3027      -3.9202      -3.8832      -3.8927   
  193.00000p     -4.0029      -3.6056      -3.5655      -3.5752   
  194.00000p     -3.7030      -3.2910      -3.2479      -3.2577   
  195.00000p     -3.4031      -2.9765      -2.9302      -2.9402   
  196.00000p     -3.1032      -2.6619      -2.6126      -2.6227   
  197.00000p     -2.8034      -2.3474      -2.2949      -2.3052   
  198.00000p     -2.5035      -2.0328      -1.9773      -1.9877   
  199.00000p     -2.2036      -1.7182      -1.6596      -1.6702   
  200.00000p     -1.9037      -1.4037      -1.3419      -1.3527   
  201.00000p     -1.6039      -1.0891      -1.0243      -1.0352   
  202.00000p     -1.3040    -774.5461m   -706.6384m   -717.7419m  
  203.00000p     -1.0041    -459.9839m   -388.9827m   -400.2459m  
  204.00000p     -1.5875      -1.0256    -949.6177m   -960.8079m  
  205.00000p     -2.1959      -1.6161      -1.5352      -1.5463   
  206.00000p     -2.8043      -2.2067      -2.1207      -2.1318   
  207.00000p     -3.0687      -2.4527      -2.3613      -2.3721   
  208.00000p     -3.2020      -2.5675      -2.4705      -2.4811   
  209.00000p     -3.3353      -2.6823      -2.5796      -2.5900   
  210.00000p     -3.4686      -2.7971      -2.6888      -2.6990   
  211.00000p     -3.6019      -2.9119      -2.7979      -2.8079   
  212.00000p     -3.5745      -2.8647      -2.7428      -2.7520   
  213.00000p     -3.5379      -2.8082      -2.6784      -2.6866   
  214.00000p     -3.5012      -2.7517      -2.6139      -2.6213   
  215.00000p     -3.4646      -2.6952      -2.5494      -2.5559   
  216.00000p     -3.4280      -2.6388      -2.4850      -2.4905   
  217.00000p     -3.3914      -2.5823      -2.4205      -2.4251   
  218.00000p     -3.3547      -2.5258      -2.3560      -2.3598   
  219.00000p     -3.3181      -2.4694      -2.2915      -2.2944   
  220.00000p     -3.2815      -2.4129      -2.2271      -2.2290   
  221.00000p     -3.2449      -2.3564      -2.1626      -2.1637   
  222.00000p     -3.2728      -2.3646      -2.1607      -2.1599   
  223.00000p     -3.3554      -2.4276      -2.2118      -2.2085   
  224.00000p     -3.4380      -2.4906      -2.2630      -2.2571   
  225.00000p     -3.5207      -2.5536      -2.3141      -2.3056   
  226.00000p     -3.6033      -2.6166      -2.3653      -2.3542   
  227.00000p     -3.6860      -2.6796      -2.4164      -2.4028   
  228.00000p     -3.7686      -2.7426      -2.4676      -2.4513   
  229.00000p     -3.8513      -2.8057      -2.5187      -2.4999   
  230.00000p     -3.9339      -2.8687      -2.5699      -2.5485   
  231.00000p     -4.0166      -2.9317      -2.6210      -2.5970   
  232.00000p     -4.0992      -2.9947      -2.6722      -2.6456   
  233.00000p     -4.1483      -3.0271      -2.6906      -2.6596   
  234.00000p     -4.1559      -3.0215      -2.6685      -2.6309   
  235.00000p     -4.1635      -3.0159      -2.6464      -2.6021   
  236.00000p     -4.1711      -3.0103      -2.6242      -2.5734   
  237.00000p     -4.1787      -3.0048      -2.6021      -2.5447   
  238.00000p     -4.1863      -2.9992      -2.5800      -2.5159   
  239.00000p     -4.1939      -2.9936      -2.5578      -2.4872   
  240.00000p     -4.2015      -2.9881      -2.5357      -2.4584   
  241.00000p     -4.2091      -2.9825      -2.5136      -2.4297   
  242.00000p     -4.2166      -2.9769      -2.4914      -2.4010   
  243.00000p     -4.2242      -2.9713      -2.4693      -2.3722   
  244.00000p     -4.2318      -2.9658      -2.4472      -2.3435   
  245.00000p     -4.2394      -2.9602      -2.4250      -2.3147   
  246.00000p     -4.2470      -2.9546      -2.4029      -2.2860   
  247.00000p     -4.2546      -2.9490      -2.3808      -2.2572   
  248.00000p     -4.2622      -2.9435      -2.3586      -2.2285   
  249.00000p     -4.2698      -2.9379      -2.3365      -2.1998   
  250.00000p     -4.3082      -2.9641      -2.3459      -2.2021   
  251.00000p     -4.6534      -3.3074      -2.6699      -2.5144   
  252.00000p     -4.9986      -3.6507      -2.9939      -2.8268   
  253.00000p     -5.3438      -3.9940      -3.3179      -3.1391   
  254.00000p     -5.6891      -4.3372      -3.6419      -3.4514   
  255.00000p     -6.0343      -4.6805      -3.9660      -3.7637   
  256.00000p     -5.8881      -4.5348      -3.8013      -3.5865   
  257.00000p     -5.3520      -4.0012      -3.2489      -3.0209   
  258.00000p     -4.8158      -3.4676      -2.6966      -2.4553   
  259.00000p     -4.2797      -2.9340      -2.1442      -1.8897   
  260.00000p     -3.7436      -2.4003      -1.5919      -1.3241   
  261.00000p     -3.2075      -1.8667      -1.0395    -758.4717m  
  262.00000p     -2.6713      -1.3331    -487.1843m   -192.8653m  
  263.00000p     -2.1352    -799.5000m     65.1654m    372.7411m  
  264.00000p     -1.5991    -265.8864m    617.5152m    938.3475m  
  265.00000p     -1.9700    -646.9778m    252.3916m    588.6355m  
  266.00000p     -2.5505      -1.2395    -324.7974m     27.3562m  
  267.00000p     -3.1311      -1.8320    -901.9864m   -533.9232m  
  268.00000p     -3.7116      -2.4245      -1.4792      -1.0952   
  269.00000p     -4.2921      -3.0170      -2.0564      -1.6565   
  270.00000p     -4.8727      -3.6096      -2.6336      -2.2178   
  271.00000p     -5.4532      -4.2021      -3.2107      -2.7790   
  272.00000p     -6.0338      -4.7946      -3.7879      -3.3403   
  273.00000p     -6.6143      -5.3871      -4.3651      -3.9016   
  274.00000p     -7.1948      -5.9796      -4.9423      -4.4629   
  275.00000p     -7.7754      -6.5721      -5.5195      -5.0242   
  276.00000p     -8.3559      -7.1647      -6.0967      -5.5854   
  277.00000p     -7.8383      -6.6654      -5.5882      -5.0606   
  278.00000p     -7.2394      -6.0853      -4.9993      -4.4553   
  279.00000p     -6.6404      -5.5052      -4.4103      -3.8500   
  280.00000p     -6.0414      -4.9251      -3.8214      -3.2447   
  281.00000p     -5.4425      -4.3449      -3.2325      -2.6394   
  282.00000p     -4.8435      -3.7648      -2.6435      -2.0341   
  283.00000p     -4.2445      -3.1847      -2.0546      -1.4288   
  284.00000p     -3.6456      -2.6045      -1.4657    -823.5260m  
  285.00000p     -3.0466      -2.0244    -876.7333m   -218.2255m  
  286.00000p     -3.3225      -2.3205      -1.1721    -500.5225m  
  287.00000p     -3.6315      -2.6497      -1.5009    -816.3430m  
  288.00000p     -3.9404      -2.9788      -1.8297      -1.1322   
  289.00000p     -4.2494      -3.3080      -2.1585      -1.4480   
  290.00000p     -4.5583      -3.6372      -2.4872      -1.7638   
  291.00000p     -4.8673      -3.9664      -2.8160      -2.0796   
  292.00000p     -5.1763      -4.2955      -3.1448      -2.3954   
  293.00000p     -5.4852      -4.6247      -3.4736      -2.7113   
  294.00000p     -5.7942      -4.9539      -3.8024      -3.0271   
  295.00000p     -6.1031      -5.2831      -4.1312      -3.3429   
  296.00000p     -6.0252      -5.2232      -4.0773      -3.2816   
  297.00000p     -5.8020      -5.0173      -3.8799      -3.0787   
  298.00000p     -5.5788      -4.8113      -3.6824      -2.8758   
  299.00000p     -5.3556      -4.6054      -3.4850      -2.6729   
  300.00000p     -5.1324      -4.3995      -3.2875      -2.4700   
  301.00000p     -4.9092      -4.1935      -3.0901      -2.2671   
  302.00000p     -4.6860      -3.9876      -2.8926      -2.0642   
  303.00000p     -4.4628      -3.7817      -2.6952      -1.8614   
  304.00000p     -4.2396      -3.5758      -2.4977      -1.6585   
  305.00000p     -4.0164      -3.3698      -2.3003      -1.4556   
  306.00000p     -3.9881      -3.3562      -2.2982      -1.4530   
  307.00000p     -4.1846      -3.5645      -2.5215      -1.6816   
  308.00000p     -4.3811      -3.7728      -2.7448      -1.9101   
  309.00000p     -4.5776      -3.9810      -2.9681      -2.1387   
  310.00000p     -4.7741      -4.1893      -3.1915      -2.3672   
  311.00000p     -4.9706      -4.3976      -3.4148      -2.5958   
  312.00000p     -5.1671      -4.6059      -3.6381      -2.8244   
  313.00000p     -5.3637      -4.8142      -3.8615      -3.0529   
  314.00000p     -5.5602      -5.0224      -4.0848      -3.2815   
  315.00000p     -5.7567      -5.2307      -4.3081      -3.5101   
  316.00000p     -5.9532      -5.4390      -4.5314      -3.7386   
  317.00000p     -5.8706      -5.3676      -4.4756      -3.6890   
  318.00000p     -4.8038      -4.3090      -3.4347      -2.6605   
  319.00000p     -4.9420      -4.4550      -3.5986      -2.8376   
  320.00000p     -5.0802      -4.6011      -3.7625      -3.0148   
  321.00000p     -5.0690      -4.5969      -3.7763      -3.0440   
  322.00000p     -4.9845      -4.5191      -3.7166      -3.0008   
  323.00000p     -4.9001      -4.4413      -3.6569      -2.9575   
  324.00000p     -4.8157      -4.3636      -3.5972      -2.9143   
  325.00000p     -4.7312      -4.2858      -3.5376      -2.8711   
  326.00000p     -4.7263      -4.2870      -3.5568      -2.9084   
  327.00000p     -4.7961      -4.3627      -3.6504      -3.0216   
  328.00000p     -4.8660      -4.4383      -3.7440      -3.1347   
  329.00000p     -4.9359      -4.5140      -3.8377      -3.2479   
  330.00000p     -5.0058      -4.5897      -3.9313      -3.3611   
  331.00000p     -4.9363      -4.5263      -3.8849      -3.3357   
  332.00000p     -4.8567      -4.4528      -3.8284      -3.3003   
  333.00000p     -4.7771      -4.3793      -3.7719      -3.2648   
  334.00000p     -4.6975      -4.3059      -3.7154      -3.2293   
  335.00000p     -4.6179      -4.2324      -3.6589      -3.1939   
  336.00000p     -4.5382      -4.1589      -3.6024      -3.1584   
  337.00000p     -4.4586      -4.0854      -3.5459      -3.1229   
  338.00000p     -4.3790      -4.0119      -3.4894      -3.0875   
  339.00000p     -4.2994      -3.9385      -3.4329      -3.0520   
  340.00000p     -4.2197      -3.8650      -3.3764      -3.0165   
  341.00000p     -4.1401      -3.7915      -3.3199      -2.9811   
  342.00000p     -4.0605      -3.7180      -3.2634      -2.9456   
  343.00000p     -4.1015      -3.7667      -3.3274      -3.0285   
  344.00000p     -4.1468      -3.8197      -3.3957      -3.1156   
  345.00000p     -4.1921      -3.8727      -3.4641      -3.2027   
  346.00000p     -4.2374      -3.9258      -3.5324      -3.2898   
  347.00000p     -4.2827      -3.9788      -3.6008      -3.3768   
  348.00000p     -4.3280      -4.0318      -3.6691      -3.4639   
  349.00000p     -4.3733      -4.0849      -3.7375      -3.5510   
  350.00000p     -4.4186      -4.1379      -3.8058      -3.6381   
  351.00000p     -4.4639      -4.1909      -3.8742      -3.7252   
  352.00000p     -4.5092      -4.2440      -3.9425      -3.8123   
  353.00000p     -4.5545      -4.2970      -4.0109      -3.8994   
  354.00000p     -4.5998      -4.3500      -4.0792      -3.9865   
  355.00000p     -4.6451      -4.4031      -4.1476      -4.0736   
  356.00000p     -4.6904      -4.4561      -4.2159      -4.1607   
  357.00000p     -4.6292      -4.4029      -4.1756      -4.1335   
  358.00000p     -4.5619      -4.3437      -4.1292      -4.0999   
  359.00000p     -4.4947      -4.2845      -4.0828      -4.0664   
  360.00000p     -4.4274      -4.2254      -4.0365      -4.0328   
  361.00000p     -4.3602      -4.1662      -3.9901      -3.9992   
  362.00000p     -4.2930      -4.1070      -3.9437      -3.9656   
  363.00000p     -4.2257      -4.0479      -3.8973      -3.9320   
  364.00000p     -4.1585      -3.9887      -3.8509      -3.8984   
  365.00000p     -4.0912      -3.9295      -3.8046      -3.8648   
  366.00000p     -4.0240      -3.8704      -3.7582      -3.8312   
  367.00000p     -3.9568      -3.8112      -3.7118      -3.7976   
  368.00000p     -3.8895      -3.7521      -3.6654      -3.7641   
  369.00000p     -3.8223      -3.6929      -3.6190      -3.7305   
  370.00000p     -3.7550      -3.6337      -3.5727      -3.6969   
  371.00000p     -3.6878      -3.5746      -3.5263      -3.6633   
  372.00000p     -3.6206      -3.5154      -3.4799      -3.6297   
  373.00000p     -3.5533      -3.4562      -3.4335      -3.5961   
  374.00000p     -3.4861      -3.3971      -3.3872      -3.5625   
  375.00000p     -3.4864      -3.4033      -3.4028      -3.5873   
  376.00000p     -3.5234      -3.4450      -3.4521      -3.6438   
  377.00000p     -3.5604      -3.4868      -3.5014      -3.7003   
  378.00000p     -3.5975      -3.5285      -3.5507      -3.7567   
  379.00000p     -3.6345      -3.5702      -3.6000      -3.8132   
  380.00000p     -3.6715      -3.6120      -3.6493      -3.8697   
  381.00000p     -3.7085      -3.6537      -3.6986      -3.9262   
  382.00000p     -3.7455      -3.6954      -3.7479      -3.9826   
  383.00000p     -3.7825      -3.7372      -3.7972      -4.0391   
  384.00000p     -3.8195      -3.7789      -3.8464      -4.0956   
  385.00000p     -3.8565      -3.8206      -3.8957      -4.1520   
  386.00000p     -3.8935      -3.8624      -3.9450      -4.2085   
  387.00000p     -3.9305      -3.9041      -3.9943      -4.2650   
  388.00000p     -3.9675      -3.9458      -4.0436      -4.3215   
  389.00000p     -4.0045      -3.9876      -4.0929      -4.3779   
  390.00000p     -4.0415      -4.0293      -4.1422      -4.4344   
  391.00000p     -4.0785      -4.0710      -4.1915      -4.4909   
  392.00000p     -4.1156      -4.1128      -4.2408      -4.5473   
  393.00000p     -4.1526      -4.1545      -4.2901      -4.6038   
  394.00000p     -4.1896      -4.1962      -4.3394      -4.6603   
  395.00000p     -4.2266      -4.2380      -4.3887      -4.7168   
  396.00000p     -4.2636      -4.2797      -4.4380      -4.7732   
  397.00000p     -4.2293      -4.2497      -4.4149      -4.7570   
  398.00000p     -3.7792      -3.8013      -3.9699      -4.3166   
  399.00000p     -3.3290      -3.3529      -3.5249      -3.8762   
  400.00000p     -2.8789      -2.9044      -3.0799      -3.4358   
  401.00000p     -3.0804      -3.1067      -3.2834      -3.6422   
  402.00000p     -3.2819      -3.3089      -3.4869      -3.8487   
  403.00000p     -3.4834      -3.5111      -3.6905      -4.0551   
  404.00000p     -3.6849      -3.7134      -3.8940      -4.2615   
  405.00000p     -3.8864      -3.9156      -4.0975      -4.4680   
  406.00000p     -3.6699      -3.6997      -3.8824      -4.2551   
  407.00000p     -3.4386      -3.4689      -3.6524      -4.0274   
  408.00000p     -3.2073      -3.2382      -3.4224      -3.7998   
  409.00000p     -2.9761      -3.0075      -3.1924      -3.5721   
  410.00000p     -3.0899      -3.1216      -3.3059      -3.6860   
  411.00000p     -3.2136      -3.2455      -3.4291      -3.8096   
  412.00000p     -3.3373      -3.3694      -3.5524      -3.9332   
  413.00000p     -3.4609      -3.4933      -3.6757      -4.0568   
  414.00000p     -3.5846      -3.6173      -3.7989      -4.1804   
  415.00000p     -3.7083      -3.7412      -3.9222      -4.3040   
  416.00000p     -3.8319      -3.8651      -4.0454      -4.4276   
  417.00000p     -3.9556      -3.9890      -4.1687      -4.5513   
  418.00000p     -3.8509      -3.8845      -4.0628      -4.4441   
  419.00000p     -3.5981      -3.6321      -3.8083      -4.1873   
  420.00000p     -3.3454      -3.3797      -3.5539      -3.9306   
  421.00000p     -3.0927      -3.1273      -3.2995      -3.6739   
  422.00000p     -2.8400      -2.8749      -3.0451      -3.4172   
  423.00000p     -2.5873      -2.6225      -2.7907      -3.1605   
  424.00000p     -2.3346      -2.3701      -2.5363      -2.9038   
  425.00000p     -2.0818      -2.1177      -2.2819      -2.6471   
  426.00000p     -1.8291      -1.8653      -2.0275      -2.3904   
  427.00000p     -1.5764      -1.6129      -1.7731      -2.1337   
  428.00000p     -1.6499      -1.6871      -1.8448      -2.2016   
  429.00000p     -1.8395      -1.8774      -2.0325      -2.3851   
  430.00000p     -2.0291      -2.0678      -2.2202      -2.5686   
  431.00000p     -2.2186      -2.2581      -2.4078      -2.7520   
  432.00000p     -2.4082      -2.4485      -2.5955      -2.9355   
  433.00000p     -2.5978      -2.6388      -2.7832      -3.1189   
  434.00000p     -2.7873      -2.8292      -2.9709      -3.3024   
  435.00000p     -2.9769      -3.0195      -3.1586      -3.4858   
  436.00000p     -3.1665      -3.2099      -3.3463      -3.6693   
  437.00000p     -3.3561      -3.4002      -3.5340      -3.8528   
  438.00000p     -3.5456      -3.5906      -3.7216      -4.0362   
  439.00000p     -3.7352      -3.7809      -3.9093      -4.2197   
  440.00000p     -2.9945      -3.0413      -3.1669      -3.4725   
  441.00000p     -2.1024      -2.1505      -2.2733      -2.5741   
  442.00000p     -1.4566      -1.5058      -1.6259      -1.9218   
  443.00000p     -2.2613      -2.3117      -2.4290      -2.7202   
  444.00000p     -3.0659      -3.1176      -3.2322      -3.5186   
  445.00000p     -3.8706      -3.9234      -4.0353      -4.3170   
  446.00000p     -4.6641      -4.7182      -4.8273      -5.1043   
  447.00000p     -3.4043      -3.4596      -3.5662      -3.8385   
  448.00000p     -2.1445      -2.2011      -2.3051      -2.5728   
  449.00000p   -884.7345m   -942.5801m     -1.0440      -1.3071   
  450.00000p    375.0591m    315.9499m    217.1613m    -41.3538m  
  451.00000p   -630.0255m   -690.3874m   -786.8115m     -1.0410   
  452.00000p     -1.6351      -1.6967      -1.7908      -2.0406   
  453.00000p     -2.2090      -2.2719      -2.3636      -2.6090   
  454.00000p     -2.2492      -2.3133      -2.4027      -2.6438   
  455.00000p     -2.2631      -2.3285      -2.4157      -2.6525   
  456.00000p     -2.2531      -2.3197      -2.4047      -2.6375   
  457.00000p     -2.2431      -2.3108      -2.3938      -2.6224   
  458.00000p     -2.2331      -2.3020      -2.3828      -2.6073   
  459.00000p     -2.2230      -2.2932      -2.3719      -2.5922   
  460.00000p     -2.2044      -2.2758      -2.3526      -2.5690   
  461.00000p     -2.1857      -2.2583      -2.3332      -2.5458   
  462.00000p     -2.1671      -2.2408      -2.3138      -2.5226   
  463.00000p     -2.1484      -2.2233      -2.2944      -2.4994   
  464.00000p     -2.1297      -2.2058      -2.2751      -2.4762   
  465.00000p     -2.1110      -2.1883      -2.2557      -2.4530   
  466.00000p     -2.1442      -2.2227      -2.2884      -2.4820   
  467.00000p     -2.2176      -2.2974      -2.3613      -2.5516   
  468.00000p     -2.2911      -2.3721      -2.4343      -2.6212   
  469.00000p     -2.3645      -2.4467      -2.5073      -2.6908   
  470.00000p     -2.4379      -2.5214      -2.5803      -2.7604   
  471.00000p     -2.4822      -2.5670      -2.6242      -2.8010   
  472.00000p     -2.4861      -2.5721      -2.6277      -2.8014   
  473.00000p     -2.4899      -2.5772      -2.6312      -2.8017   
  474.00000p     -2.4937      -2.5823      -2.6347      -2.8021   
  475.00000p     -2.4976      -2.5874      -2.6382      -2.8025   
  476.00000p     -2.5014      -2.5925      -2.6416      -2.8028   
  477.00000p     -2.5053      -2.5977      -2.6451      -2.8032   
  478.00000p     -2.5091      -2.6028      -2.6486      -2.8035   
  479.00000p     -2.5129      -2.6079      -2.6521      -2.8039   
  480.00000p     -2.5168      -2.6130      -2.6556      -2.8042   
  481.00000p     -2.5206      -2.6181      -2.6591      -2.8046   
  482.00000p     -2.5244      -2.6232      -2.6626      -2.8050   
  483.00000p     -2.5408      -2.6410      -2.6787      -2.8183   
  484.00000p     -2.5668      -2.6685      -2.7046      -2.8416   
  485.00000p     -2.5928      -2.6960      -2.7306      -2.8649   
  486.00000p     -2.6188      -2.7235      -2.7565      -2.8882   
  487.00000p     -2.6448      -2.7510      -2.7824      -2.9115   
  488.00000p     -2.6708      -2.7785      -2.8084      -2.9348   
  489.00000p     -2.6968      -2.8060      -2.8343      -2.9581   
  490.00000p     -2.7228      -2.8335      -2.8602      -2.9814   
  491.00000p     -2.7489      -2.8610      -2.8862      -3.0047   
  492.00000p     -2.7749      -2.8885      -2.9121      -3.0280   
  493.00000p     -2.8009      -2.9161      -2.9380      -3.0513   
  494.00000p     -2.8269      -2.9436      -2.9639      -3.0746   
  495.00000p     -2.8529      -2.9711      -2.9899      -3.0979   
  496.00000p     -2.8789      -2.9986      -3.0158      -3.1212   
  497.00000p     -2.9049      -3.0261      -3.0417      -3.1445   
  498.00000p     -2.9309      -3.0536      -3.0677      -3.1678   
  499.00000p     -2.9569      -3.0811      -3.0936      -3.1911   
  500.00000p     -2.9829      -3.1086      -3.1195      -3.2144   
  501.00000p     -3.0003      -3.1286      -3.1379      -3.2303   
  502.00000p     -3.0050      -3.1374      -3.1451      -3.2351   
  503.00000p     -3.0097      -3.1463      -3.1523      -3.2399   
  504.00000p     -3.0143      -3.1552      -3.1595      -3.2447   
  505.00000p     -3.0190      -3.1640      -3.1667      -3.2495   
  506.00000p     -3.0236      -3.1729      -3.1739      -3.2544   
  507.00000p     -3.0283      -3.1817      -3.1811      -3.2592   
  508.00000p     -3.0329      -3.1906      -3.1883      -3.2640   
  509.00000p     -3.0376      -3.1995      -3.1955      -3.2688   
  510.00000p     -3.0423      -3.2083      -3.2027      -3.2737   
  511.00000p     -3.0469      -3.2172      -3.2099      -3.2785   
  512.00000p     -3.0516      -3.2260      -3.2171      -3.2833   
  513.00000p     -3.0562      -3.2349      -3.2243      -3.2881   
  514.00000p     -3.0609      -3.2437      -3.2315      -3.2930   
  515.00000p     -3.0655      -3.2526      -3.2387      -3.2978   
  516.00000p     -3.0702      -3.2615      -3.2459      -3.3026   
  517.00000p     -3.0749      -3.2703      -3.2531      -3.3074   
  518.00000p     -3.0795      -3.2792      -3.2603      -3.3123   
  519.00000p     -3.0842      -3.2880      -3.2675      -3.3171   
  520.00000p     -3.0888      -3.2969      -3.2747      -3.3219   
  521.00000p     -3.0935      -3.3058      -3.2819      -3.3267   
  522.00000p     -3.0982      -3.3146      -3.2891      -3.3316   
  523.00000p     -3.1028      -3.3235      -3.2963      -3.3364   
  524.00000p     -3.1075      -3.3323      -3.3035      -3.3412   
  525.00000p     -3.1121      -3.3412      -3.3107      -3.3460   
  526.00000p     -3.1212      -3.3597      -3.3280      -3.3608   
  527.00000p     -3.1335      -3.3853      -3.3529      -3.3829   
  528.00000p     -3.1459      -3.4110      -3.3778      -3.4051   
  529.00000p     -3.1582      -3.4367      -3.4028      -3.4273   
  530.00000p     -3.1706      -3.4624      -3.4277      -3.4494   
  531.00000p     -3.1830      -3.4880      -3.4526      -3.4716   
  532.00000p     -3.1953      -3.5137      -3.4775      -3.4938   
  533.00000p     -3.2077      -3.5394      -3.5024      -3.5159   
  534.00000p     -3.2200      -3.5651      -3.5273      -3.5381   
  535.00000p     -3.2324      -3.5908      -3.5522      -3.5602   
  536.00000p     -3.2447      -3.6164      -3.5771      -3.5824   
  537.00000p     -3.2571      -3.6421      -3.6020      -3.6046   
  538.00000p     -3.2694      -3.6678      -3.6269      -3.6267   
  539.00000p     -3.2818      -3.6935      -3.6519      -3.6489   
  540.00000p     -3.2941      -3.7191      -3.6768      -3.6711   
  541.00000p     -3.3065      -3.7448      -3.7017      -3.6932   
  542.00000p     -3.3188      -3.7705      -3.7266      -3.7154   
  543.00000p     -3.3312      -3.7962      -3.7515      -3.7376   
  544.00000p     -3.3436      -3.8218      -3.7764      -3.7597   
  545.00000p     -3.3559      -3.8475      -3.8013      -3.7819   
  546.00000p     -3.3683      -3.8732      -3.8262      -3.8041   
  547.00000p     -3.3806      -3.8989      -3.8511      -3.8262   
  548.00000p     -3.3930      -3.9245      -3.8760      -3.8484   
  549.00000p     -3.4053      -3.9502      -3.9009      -3.8706   
  550.00000p     -3.4177      -3.9759      -3.9259      -3.8927   
  551.00000p     -3.4535      -4.0343      -3.9927      -3.9590   
  552.00000p     -3.4892      -4.0927      -4.0596      -4.0253   
  553.00000p     -3.5250      -4.1511      -4.1265      -4.0916   
  554.00000p     -3.5608      -4.2095      -4.1934      -4.1579   
  555.00000p     -3.5966      -4.2679      -4.2603      -4.2242   
  556.00000p     -3.6323      -4.3263      -4.3272      -4.2905   
  557.00000p     -3.6681      -4.3847      -4.3941      -4.3568   
  558.00000p     -3.7039      -4.4431      -4.4610      -4.4231   
  559.00000p     -3.7396      -4.5015      -4.5278      -4.4894   
  560.00000p     -3.7754      -4.5599      -4.5947      -4.5557   
  561.00000p     -3.8112      -4.6183      -4.6616      -4.6220   
  562.00000p     -3.8470      -4.6767      -4.7285      -4.6883   
  563.00000p     -3.8827      -4.7352      -4.7954      -4.7545   
  564.00000p     -3.9185      -4.7936      -4.8623      -4.8208   
  565.00000p     -3.9543      -4.8520      -4.9292      -4.8871   
  566.00000p     -3.9901      -4.9104      -4.9961      -4.9534   
  567.00000p     -4.0258      -4.9688      -5.0630      -5.0197   
  568.00000p     -4.0616      -5.0272      -5.1298      -5.0860   
  569.00000p     -4.0974      -5.0856      -5.1967      -5.1523   
  570.00000p     -4.1332      -5.1440      -5.2636      -5.2186   
  571.00000p     -4.0942      -5.1277      -5.2564      -5.2110   
  572.00000p     -3.9760      -5.0323      -5.1706      -5.1250   
  573.00000p     -3.8578      -4.9368      -5.0848      -5.0390   
  574.00000p     -4.0199      -5.1213      -5.2804      -5.2351   
  575.00000p     -4.2592      -5.3829      -5.5537      -5.5091   
  576.00000p     -4.4986      -5.6445      -5.8269      -5.7830   
  577.00000p     -4.7380      -5.9062      -6.1002      -6.0570   
  578.00000p     -4.9773      -6.1678      -6.3734      -6.3309   
  579.00000p     -5.2167      -6.4294      -6.6467      -6.6049   
  580.00000p     -5.4561      -6.6911      -6.9199      -6.8788   
  581.00000p     -5.6954      -6.9527      -7.1932      -7.1527   
  582.00000p     -5.8814      -7.1603      -7.4131      -7.3738   
  583.00000p     -5.7335      -7.0299      -7.2995      -7.2645   
  584.00000p     -5.5857      -6.8995      -7.1858      -7.1551   
  585.00000p     -5.4378      -6.7691      -7.0722      -7.0457   
  586.00000p     -5.2900      -6.6387      -6.9586      -6.9363   
  587.00000p     -5.1421      -6.5083      -6.8450      -6.8270   
  588.00000p     -4.9943      -6.3779      -6.7313      -6.7176   
  589.00000p     -4.8464      -6.2475      -6.6177      -6.6082   
  590.00000p     -4.6985      -6.1171      -6.5041      -6.4989   
  591.00000p     -4.5507      -5.9867      -6.3905      -6.3895   
  592.00000p     -4.4028      -5.8563      -6.2769      -6.2801   
  593.00000p     -4.2550      -5.7260      -6.1632      -6.1707   
  594.00000p     -4.1071      -5.5956      -6.0496      -6.0614   
  595.00000p     -3.9593      -5.4652      -5.9360      -5.9520   
  596.00000p     -3.8114      -5.3348      -5.8224      -5.8426   
  597.00000p     -3.7788      -5.3191      -5.8238      -5.8486   
  598.00000p     -4.8786      -6.4305      -6.9557      -6.9882   
  599.00000p     -5.9784      -7.5420      -8.0876      -8.1278   
  600.00000p     -7.0781      -8.6535      -9.2196      -9.2674   
  601.00000p     -6.7252      -8.3054      -8.8931      -8.9519   
  602.00000p     -6.3722      -7.9573      -8.5666      -8.6364   
  603.00000p     -6.0192      -7.6092      -8.2401      -8.3209   
  604.00000p     -5.6663      -7.2611      -7.9137      -8.0055   
  605.00000p     -5.3355      -6.9351      -7.6094      -7.7122   
  606.00000p     -5.4083      -7.0113      -7.7073      -7.8217   
  607.00000p     -5.4810      -7.0875      -7.8052      -7.9313   
  608.00000p     -5.5104      -7.1181      -7.8575      -7.9962   
  609.00000p     -5.4749      -7.0809      -7.8418      -7.9946   
  610.00000p     -5.4394      -7.0437      -7.8262      -7.9930   
  611.00000p     -5.4039      -7.0065      -7.8105      -7.9913   
  612.00000p     -5.3685      -6.9693      -7.7949      -7.9897   
  613.00000p     -5.3330      -6.9321      -7.7792      -7.9880   
  614.00000p     -5.2975      -6.8949      -7.7636      -7.9864   
  615.00000p     -5.3127      -6.9007      -7.7887      -8.0286   
  616.00000p     -5.3342      -6.9117      -7.8188      -8.0762   
  617.00000p     -5.3556      -6.9228      -7.8490      -8.1238   
  618.00000p     -5.3771      -6.9339      -7.8791      -8.1715   
  619.00000p     -5.3986      -6.9450      -7.9093      -8.2191   
  620.00000p     -5.4201      -6.9561      -7.9394      -8.2667   
  621.00000p     -5.4415      -6.9671      -7.9696      -8.3144   
  622.00000p     -5.4630      -6.9782      -7.9997      -8.3620   
  623.00000p     -5.4845      -6.9893      -8.0299      -8.4096   
  624.00000p     -5.5060      -7.0004      -8.0600      -8.4572   
  625.00000p     -5.5339      -7.0118      -8.0841      -8.4993   
  626.00000p     -5.5644      -7.0234      -8.1058      -8.5392   
  627.00000p     -5.5949      -7.0350      -8.1275      -8.5791   
  628.00000p     -5.6254      -7.0466      -8.1492      -8.6190   
  629.00000p     -5.6559      -7.0582      -8.1709      -8.6589   
  630.00000p     -5.6864      -7.0698      -8.1927      -8.6988   
  631.00000p     -5.7169      -7.0814      -8.2144      -8.7387   
  632.00000p     -5.7474      -7.0931      -8.2361      -8.7785   
  633.00000p     -5.7779      -7.1047      -8.2578      -8.8184   
  634.00000p     -5.8083      -7.1163      -8.2795      -8.8583   
  635.00000p     -5.8388      -7.1279      -8.3012      -8.8982   
  636.00000p     -5.8693      -7.1395      -8.3229      -8.9381   
  637.00000p     -5.8998      -7.1511      -8.3446      -8.9780   
  638.00000p     -5.9303      -7.1627      -8.3663      -9.0179   
  639.00000p     -5.9608      -7.1743      -8.3880      -9.0578   
  640.00000p     -5.9913      -7.1859      -8.4098      -9.0977   
  641.00000p     -6.0220      -7.1977      -8.4295      -9.1340   
  642.00000p     -6.0540      -7.2112      -8.4360      -9.1456   
  643.00000p     -6.0859      -7.2246      -8.4424      -9.1573   
  644.00000p     -6.1179      -7.2381      -8.4489      -9.1689   
  645.00000p     -6.1498      -7.2515      -8.4553      -9.1806   
  646.00000p     -6.1818      -7.2650      -8.4618      -9.1923   
  647.00000p     -6.2137      -7.2785      -8.4682      -9.2039   
  648.00000p     -6.2457      -7.2919      -8.4747      -9.2156   
  649.00000p     -6.2777      -7.3054      -8.4811      -9.2272   
  650.00000p     -6.3096      -7.3188      -8.4876      -9.2389   
  651.00000p     -6.3416      -7.3323      -8.4940      -9.2505   
  652.00000p     -6.3735      -7.3457      -8.5004      -9.2622   
  653.00000p     -6.4055      -7.3592      -8.5069      -9.2738   
  654.00000p     -6.4375      -7.3726      -8.5133      -9.2855   
  655.00000p     -6.4694      -7.3861      -8.5198      -9.2972   
  656.00000p     -6.5014      -7.3995      -8.5262      -9.3088   
  657.00000p     -6.5333      -7.4130      -8.5327      -9.3205   
  658.00000p     -6.5653      -7.4264      -8.5391      -9.3321   
  659.00000p     -6.5973      -7.4399      -8.5456      -9.3438   
  660.00000p     -6.6292      -7.4533      -8.5520      -9.3554   
  661.00000p     -6.6612      -7.4668      -8.5585      -9.3671   
  662.00000p     -6.6931      -7.4803      -8.5649      -9.3788   
  663.00000p     -6.7251      -7.4937      -8.5714      -9.3904   
  664.00000p     -6.7571      -7.5072      -8.5778      -9.4021   
  665.00000p     -6.7890      -7.5206      -8.5843      -9.4137   
  666.00000p     -6.8210      -7.5341      -8.5907      -9.4254   
  667.00000p     -6.8529      -7.5475      -8.5971      -9.4370   
  668.00000p     -6.8849      -7.5610      -8.6036      -9.4487   
  669.00000p     -6.9169      -7.5744      -8.6100      -9.4604   
  670.00000p     -6.9547      -7.5948      -8.6208      -9.4717   
  671.00000p     -7.0135      -7.6396      -8.6468      -9.4818   
  672.00000p     -7.0724      -7.6843      -8.6728      -9.4919   
  673.00000p     -7.1312      -7.7291      -8.6987      -9.5020   
  674.00000p     -7.1900      -7.7739      -8.7247      -9.5121   
  675.00000p     -7.2488      -7.8187      -8.7507      -9.5222   
  676.00000p     -7.3076      -7.8635      -8.7767      -9.5323   
  677.00000p     -7.3665      -7.9083      -8.8027      -9.5425   
  678.00000p     -7.4253      -7.9531      -8.8287      -9.5526   
  679.00000p     -7.4841      -7.9979      -8.8547      -9.5627   
  680.00000p     -7.5429      -8.0427      -8.8807      -9.5728   
  681.00000p     -7.6018      -8.0875      -8.9067      -9.5829   
  682.00000p     -7.6606      -8.1323      -8.9327      -9.5930   
  683.00000p     -7.7194      -8.1771      -8.9586      -9.6031   
  684.00000p     -7.7782      -8.2218      -8.9846      -9.6132   
  685.00000p     -7.8371      -8.2666      -9.0106      -9.6234   
  686.00000p     -7.8959      -8.3114      -9.0366      -9.6335   
  687.00000p     -7.9547      -8.3562      -9.0626      -9.6436   
  688.00000p     -8.0135      -8.4010      -9.0886      -9.6537   
  689.00000p     -8.0724      -8.4458      -9.1146      -9.6638   
  690.00000p     -8.1312      -8.4906      -9.1406      -9.6739   
  691.00000p     -8.1900      -8.5354      -9.1666      -9.6840   
  692.00000p     -8.2488      -8.5802      -9.1926      -9.6941   
  693.00000p     -8.3077      -8.6250      -9.2185      -9.7043   
  694.00000p     -8.3665      -8.6698      -9.2445      -9.7144   
  695.00000p     -8.4253      -8.7146      -9.2705      -9.7245   
  696.00000p     -8.4841      -8.7594      -9.2965      -9.7346   
  697.00000p     -8.5429      -8.8041      -9.3225      -9.7447   
  698.00000p     -8.6018      -8.8489      -9.3485      -9.7548   
  699.00000p     -8.6606      -8.8937      -9.3745      -9.7649   
  700.00000p     -8.7194      -8.9385      -9.4005      -9.7750   
  701.00000p     -8.7782      -8.9833      -9.4265      -9.7851   
  702.00000p     -8.8371      -9.0281      -9.4525      -9.7953   
  703.00000p     -8.8959      -9.0729      -9.4784      -9.8054   
  704.00000p     -8.9547      -9.1177      -9.5044      -9.8155   
  705.00000p     -9.0135      -9.1625      -9.5304      -9.8256   
  706.00000p     -9.0692      -9.2020      -9.5517      -9.8295   
  707.00000p     -9.1237      -9.2398      -9.5713      -9.8312   
  708.00000p     -9.1782      -9.2775      -9.5909      -9.8329   
  709.00000p     -9.2327      -9.3152      -9.6105      -9.8346   
  710.00000p     -9.2872      -9.3530      -9.6301      -9.8363   
  711.00000p     -9.3417      -9.3907      -9.6497      -9.8381   
  712.00000p     -9.3962      -9.4284      -9.6693      -9.8398   
  713.00000p     -9.4508      -9.4662      -9.6889      -9.8415   
  714.00000p     -9.5053      -9.5039      -9.7085      -9.8432   
  715.00000p     -9.5598      -9.5417      -9.7282      -9.8450   
  716.00000p     -9.6143      -9.5794      -9.7478      -9.8467   
  717.00000p     -9.6688      -9.6171      -9.7674      -9.8484   
  718.00000p     -9.7233      -9.6549      -9.7870      -9.8501   
  719.00000p     -9.7779      -9.6926      -9.8066      -9.8518   
  720.00000p     -9.8324      -9.7304      -9.8262      -9.8536   
  721.00000p     -9.8869      -9.7681      -9.8458      -9.8553   
  722.00000p     -9.9414      -9.8058      -9.8654      -9.8570   
  723.00000p     -9.9959      -9.8436      -9.8850      -9.8587   
  724.00000p    -10.0504      -9.8813      -9.9047      -9.8604   
  725.00000p    -10.1049      -9.9191      -9.9243      -9.8622   
  726.00000p    -10.1595      -9.9568      -9.9439      -9.8639   
  727.00000p    -10.2140      -9.9945      -9.9635      -9.8656   
  728.00000p    -10.2685     -10.0323      -9.9831      -9.8673   
  729.00000p    -10.3230     -10.0700     -10.0027      -9.8691   
  730.00000p    -10.3775     -10.1077     -10.0223      -9.8708   
  731.00000p    -10.4320     -10.1455     -10.0419      -9.8725   
  732.00000p    -10.4866     -10.1832     -10.0615      -9.8742   
  733.00000p    -10.5411     -10.2210     -10.0812      -9.8759   
  734.00000p    -10.5956     -10.2587     -10.1008      -9.8777   
  735.00000p    -10.6501     -10.2964     -10.1204      -9.8794   
  736.00000p    -10.7046     -10.3342     -10.1400      -9.8811   
  737.00000p    -10.7591     -10.3719     -10.1596      -9.8828   
  738.00000p    -10.8137     -10.4097     -10.1792      -9.8846   
  739.00000p    -10.8682     -10.4474     -10.1988      -9.8863   
  740.00000p    -10.9227     -10.4851     -10.2184      -9.8880   
  741.00000p    -10.9772     -10.5229     -10.2380      -9.8897   
  742.00000p    -11.0317     -10.5606     -10.2577      -9.8914   
  743.00000p    -11.0862     -10.5983     -10.2773      -9.8932   
  744.00000p    -11.1407     -10.6361     -10.2969      -9.8949   
  745.00000p    -11.1953     -10.6738     -10.3165      -9.8966   
  746.00000p    -11.2498     -10.7116     -10.3361      -9.8983   
  747.00000p    -11.3043     -10.7493     -10.3557      -9.9000   
  748.00000p    -11.3348     -10.7745     -10.3676      -9.9035   
  749.00000p    -11.3615     -10.7976     -10.3782      -9.9072   
  750.00000p    -11.3882     -10.8208     -10.3888      -9.9109   
  751.00000p    -11.4149     -10.8439     -10.3995      -9.9146   
  752.00000p    -11.4416     -10.8671     -10.4101      -9.9183   
  753.00000p    -11.4683     -10.8902     -10.4207      -9.9220   
  754.00000p    -11.4950     -10.9134     -10.4314      -9.9257   
  755.00000p    -11.5217     -10.9365     -10.4420      -9.9294   
  756.00000p    -11.5484     -10.9597     -10.4526      -9.9331   
  757.00000p    -11.5751     -10.9829     -10.4633      -9.9368   
  758.00000p    -11.6018     -11.0060     -10.4739      -9.9405   
  759.00000p    -11.6286     -11.0292     -10.4845      -9.9442   
  760.00000p    -11.6553     -11.0523     -10.4952      -9.9479   
  761.00000p    -11.6820     -11.0755     -10.5058      -9.9516   
  762.00000p    -11.7087     -11.0986     -10.5164      -9.9553   
  763.00000p    -11.7354     -11.1218     -10.5271      -9.9590   
  764.00000p    -11.7621     -11.1449     -10.5377      -9.9627   
  765.00000p    -11.7888     -11.1681     -10.5483      -9.9664   
  766.00000p    -11.8155     -11.1912     -10.5590      -9.9701   
  767.00000p    -11.8422     -11.2144     -10.5696      -9.9738   
  768.00000p    -11.8689     -11.2376     -10.5802      -9.9775   
  769.00000p    -11.8956     -11.2607     -10.5909      -9.9812   
  770.00000p    -11.9223     -11.2839     -10.6015      -9.9849   
  771.00000p    -11.9490     -11.3070     -10.6121      -9.9886   
  772.00000p    -11.9757     -11.3302     -10.6228      -9.9923   
  773.00000p    -12.0024     -11.3533     -10.6334      -9.9960   
  774.00000p    -12.0291     -11.3765     -10.6440      -9.9997   
  775.00000p    -12.0558     -11.3996     -10.6547     -10.0034   
  776.00000p    -12.0825     -11.4228     -10.6653     -10.0071   
  777.00000p    -12.1092     -11.4460     -10.6759     -10.0108   
[...]
  732.00000p     -9.3485      -9.3467      -9.3354      -9.2136   
  733.00000p     -9.3500      -9.3485      -9.3368      -9.2145   
  734.00000p     -9.3515      -9.3503      -9.3382      -9.2153   
  735.00000p     -9.3530      -9.3522      -9.3397      -9.2162   
  736.00000p     -9.3544      -9.3540      -9.3411      -9.2170   
  737.00000p     -9.3559      -9.3558      -9.3426      -9.2179   
  738.00000p     -9.3574      -9.3576      -9.3440      -9.2187   
  739.00000p     -9.3589      -9.3595      -9.3455      -9.2196   
  740.00000p     -9.3604      -9.3613      -9.3469      -9.2205   
  741.00000p     -9.3619      -9.3631      -9.3484      -9.2213   
  742.00000p     -9.3634      -9.3650      -9.3498      -9.2222   
  743.00000p     -9.3649      -9.3668      -9.3513      -9.2230   
  744.00000p     -9.3664      -9.3686      -9.3527      -9.2239   
  745.00000p     -9.3679      -9.3704      -9.3542      -9.2247   
  746.00000p     -9.3694      -9.3723      -9.3556      -9.2256   
  747.00000p     -9.3708      -9.3741      -9.3570      -9.2265   
  748.00000p     -9.3729      -9.3761      -9.3582      -9.2281   
  749.00000p     -9.3750      -9.3781      -9.3594      -9.2298   
  750.00000p     -9.3771      -9.3802      -9.3605      -9.2315   
  751.00000p     -9.3792      -9.3822      -9.3617      -9.2332   
  752.00000p     -9.3813      -9.3842      -9.3628      -9.2349   
  753.00000p     -9.3834      -9.3863      -9.3640      -9.2366   
  754.00000p     -9.3855      -9.3883      -9.3651      -9.2384   
  755.00000p     -9.3876      -9.3903      -9.3663      -9.2401   
  756.00000p     -9.3897      -9.3923      -9.3674      -9.2418   
  757.00000p     -9.3918      -9.3944      -9.3686      -9.2435   
  758.00000p     -9.3939      -9.3964      -9.3697      -9.2452   
  759.00000p     -9.3960      -9.3984      -9.3709      -9.2469   
  760.00000p     -9.3981      -9.4005      -9.3720      -9.2486   
  761.00000p     -9.4002      -9.4025      -9.3732      -9.2504   
  762.00000p     -9.4024      -9.4045      -9.3743      -9.2521   
  763.00000p     -9.4045      -9.4066      -9.3755      -9.2538   
  764.00000p     -9.4066      -9.4086      -9.3766      -9.2555   
  765.00000p     -9.4087      -9.4106      -9.3778      -9.2572   
  766.00000p     -9.4108      -9.4127      -9.3789      -9.2589   
  767.00000p     -9.4129      -9.4147      -9.3801      -9.2606   
  768.00000p     -9.4150      -9.4167      -9.3812      -9.2624   
  769.00000p     -9.4171      -9.4188      -9.3824      -9.2641   
  770.00000p     -9.4192      -9.4208      -9.3835      -9.2658   
  771.00000p     -9.4213      -9.4228      -9.3847      -9.2675   
  772.00000p     -9.4234      -9.4249      -9.3858      -9.2692   
  773.00000p     -9.4255      -9.4269      -9.3870      -9.2709   
  774.00000p     -9.4276      -9.4289      -9.3881      -9.2726   
  775.00000p     -9.4297      -9.4309      -9.3893      -9.2744   
  776.00000p     -9.4318      -9.4330      -9.3904      -9.2761   
  777.00000p     -9.4339      -9.4350      -9.3916      -9.2778   
  778.00000p     -9.4361      -9.4370      -9.3927      -9.2795   
  779.00000p     -9.4382      -9.4391      -9.3939      -9.2812   
  780.00000p     -9.4403      -9.4411      -9.3950      -9.2829   
  781.00000p     -9.4424      -9.4431      -9.3962      -9.2847   
  782.00000p     -9.4445      -9.4452      -9.3973      -9.2864   
  783.00000p     -9.4466      -9.4472      -9.3985      -9.2881   
  784.00000p     -9.4487      -9.4492      -9.3996      -9.2898   
  785.00000p     -9.4508      -9.4513      -9.4008      -9.2915   
  786.00000p     -9.4529      -9.4533      -9.4019      -9.2932   
  787.00000p     -9.4550      -9.4553      -9.4031      -9.2949   
  788.00000p     -9.4571      -9.4574      -9.4042      -9.2967   
  789.00000p     -9.4592      -9.4594      -9.4054      -9.2984   
  790.00000p     -9.4613      -9.4614      -9.4065      -9.3001   
  791.00000p     -9.4635      -9.4635      -9.4077      -9.3018   
  792.00000p     -9.4671      -9.4660      -9.4093      -9.3048   
  793.00000p     -9.4707      -9.4685      -9.4109      -9.3078   
  794.00000p     -9.4743      -9.4711      -9.4125      -9.3107   
  795.00000p     -9.4779      -9.4736      -9.4142      -9.3137   
  796.00000p     -9.4815      -9.4761      -9.4158      -9.3167   
  797.00000p     -9.4851      -9.4787      -9.4174      -9.3196   
  798.00000p     -9.4887      -9.4812      -9.4190      -9.3226   
  799.00000p     -9.4923      -9.4837      -9.4206      -9.3256   
  800.00000p     -9.4959      -9.4863      -9.4222      -9.3285   
  801.00000p     -9.4995      -9.4888      -9.4239      -9.3315   
  802.00000p     -9.5032      -9.4913      -9.4255      -9.3345   
  803.00000p     -9.5068      -9.4939      -9.4271      -9.3375   
  804.00000p     -9.5104      -9.4964      -9.4287      -9.3404   
  805.00000p     -9.5140      -9.4989      -9.4303      -9.3434   
  806.00000p     -9.5176      -9.5014      -9.4319      -9.3464   
  807.00000p     -9.5212      -9.5040      -9.4335      -9.3493   
  808.00000p     -9.5248      -9.5065      -9.4352      -9.3523   
  809.00000p     -9.5284      -9.5090      -9.4368      -9.3553   
  810.00000p     -9.5320      -9.5116      -9.4384      -9.3582   
  811.00000p     -9.5356      -9.5141      -9.4400      -9.3612   
  812.00000p     -9.5392      -9.5166      -9.4416      -9.3642   
  813.00000p     -9.5428      -9.5192      -9.4432      -9.3671   
  814.00000p     -9.5464      -9.5217      -9.4449      -9.3701   
  815.00000p     -9.5500      -9.5242      -9.4465      -9.3731   
  816.00000p     -9.5536      -9.5268      -9.4481      -9.3760   
  817.00000p     -9.5572      -9.5293      -9.4497      -9.3790   
  818.00000p     -9.5608      -9.5318      -9.4513      -9.3820   
  819.00000p     -9.5645      -9.5344      -9.4529      -9.3849   
  820.00000p     -9.5681      -9.5369      -9.4545      -9.3879   
  821.00000p     -9.5717      -9.5394      -9.4562      -9.3909   
  822.00000p     -9.5753      -9.5420      -9.4578      -9.3938   
  823.00000p     -9.5789      -9.5445      -9.4594      -9.3968   
  824.00000p     -9.5825      -9.5470      -9.4610      -9.3998   
  825.00000p     -9.5861      -9.5495      -9.4626      -9.4027   
  826.00000p     -9.5897      -9.5521      -9.4642      -9.4057   
  827.00000p     -9.5933      -9.5546      -9.4658      -9.4087   
  828.00000p     -9.5969      -9.5571      -9.4675      -9.4116   
  829.00000p     -9.6005      -9.5597      -9.4691      -9.4146   
  830.00000p     -9.6041      -9.5622      -9.4707      -9.4176   
  831.00000p     -9.6077      -9.5647      -9.4723      -9.4205   
  832.00000p     -9.6113      -9.5673      -9.4739      -9.4235   
  833.00000p     -9.6149      -9.5698      -9.4755      -9.4265   
  834.00000p     -9.6185      -9.5723      -9.4772      -9.4294   
  835.00000p     -9.6221      -9.5749      -9.4788      -9.4324   
  836.00000p     -9.6257      -9.5774      -9.4804      -9.4354   
  837.00000p     -9.6294      -9.5799      -9.4820      -9.4383   
  838.00000p     -9.6330      -9.5825      -9.4836      -9.4413   
  839.00000p     -9.6366      -9.5850      -9.4852      -9.4443   
  840.00000p     -9.6402      -9.5875      -9.4868      -9.4472   
  841.00000p     -9.6437      -9.5900      -9.4884      -9.4502   
  842.00000p     -9.6466      -9.5914      -9.4896      -9.4521   
  843.00000p     -9.6494      -9.5927      -9.4908      -9.4540   
  844.00000p     -9.6522      -9.5941      -9.4920      -9.4560   
  845.00000p     -9.6550      -9.5954      -9.4932      -9.4579   
  846.00000p     -9.6578      -9.5968      -9.4944      -9.4599   
  847.00000p     -9.6606      -9.5982      -9.4956      -9.4618   
  848.00000p     -9.6635      -9.5995      -9.4968      -9.4637   
  849.00000p     -9.6663      -9.6009      -9.4980      -9.4657   
  850.00000p     -9.6691      -9.6022      -9.4992      -9.4676   
  851.00000p     -9.6719      -9.6036      -9.5003      -9.4696   
  852.00000p     -9.6747      -9.6050      -9.5015      -9.4715   
  853.00000p     -9.6775      -9.6063      -9.5027      -9.4734   
  854.00000p     -9.6803      -9.6077      -9.5039      -9.4754   
  855.00000p     -9.6832      -9.6090      -9.5051      -9.4773   
  856.00000p     -9.6860      -9.6104      -9.5063      -9.4793   
  857.00000p     -9.6888      -9.6118      -9.5075      -9.4812   
  858.00000p     -9.6916      -9.6131      -9.5087      -9.4831   
  859.00000p     -9.6944      -9.6145      -9.5099      -9.4851   
  860.00000p     -9.6972      -9.6158      -9.5111      -9.4870   
  861.00000p     -9.7001      -9.6172      -9.5123      -9.4890   
  862.00000p     -9.7029      -9.6186      -9.5134      -9.4909   
  863.00000p     -9.7057      -9.6199      -9.5146      -9.4928   
  864.00000p     -9.7085      -9.6213      -9.5158      -9.4948   
  865.00000p     -9.7113      -9.6226      -9.5170      -9.4967   
  866.00000p     -9.7141      -9.6240      -9.5182      -9.4987   
  867.00000p     -9.7169      -9.6254      -9.5194      -9.5006   
  868.00000p     -9.7198      -9.6267      -9.5206      -9.5025   
  869.00000p     -9.7226      -9.6281      -9.5218      -9.5045   
  870.00000p     -9.7254      -9.6294      -9.5230      -9.5064   
  871.00000p     -9.7282      -9.6308      -9.5242      -9.5084   
  872.00000p     -9.7310      -9.6322      -9.5253      -9.5103   
  873.00000p     -9.7338      -9.6335      -9.5265      -9.5123   
  874.00000p     -9.7367      -9.6349      -9.5277      -9.5142   
  875.00000p     -9.7395      -9.6362      -9.5289      -9.5161   
  876.00000p     -9.7423      -9.6376      -9.5301      -9.5181   
  877.00000p     -9.7451      -9.6390      -9.5313      -9.5200   
  878.00000p     -9.7479      -9.6403      -9.5325      -9.5220   
  879.00000p     -9.7507      -9.6417      -9.5337      -9.5239   
  880.00000p     -9.7535      -9.6430      -9.5349      -9.5258   
  881.00000p     -9.7564      -9.6444      -9.5361      -9.5278   
  882.00000p     -9.7592      -9.6458      -9.5373      -9.5297   
  883.00000p     -9.7620      -9.6471      -9.5384      -9.5317   
  884.00000p     -9.7648      -9.6485      -9.5396      -9.5336   
  885.00000p     -9.7676      -9.6498      -9.5408      -9.5355   
  886.00000p     -9.7704      -9.6512      -9.5420      -9.5375   
  887.00000p     -9.7733      -9.6526      -9.5432      -9.5394   
  888.00000p     -9.7761      -9.6539      -9.5444      -9.5414   
  889.00000p     -9.7789      -9.6553      -9.5456      -9.5433   
  890.00000p     -9.7817      -9.6566      -9.5468      -9.5452   
  891.00000p     -9.7844      -9.6580      -9.5480      -9.5472   
  892.00000p     -9.7849      -9.6583      -9.5499      -9.5492   
  893.00000p     -9.7853      -9.6586      -9.5519      -9.5511   
  894.00000p     -9.7857      -9.6589      -9.5538      -9.5531   
  895.00000p     -9.7862      -9.6592      -9.5558      -9.5551   
  896.00000p     -9.7866      -9.6596      -9.5577      -9.5571   
  897.00000p     -9.7871      -9.6599      -9.5597      -9.5591   
  898.00000p     -9.7875      -9.6602      -9.5616      -9.5611   
  899.00000p     -9.7879      -9.6605      -9.5635      -9.5630   
  900.00000p     -9.7884      -9.6608      -9.5655      -9.5650   
  901.00000p     -9.6351      -9.5096      -9.4173      -9.4220   
  902.00000p     -9.4819      -9.3583      -9.2692      -9.2791   
  903.00000p     -9.3287      -9.2071      -9.1211      -9.1361   
  904.00000p     -9.1754      -9.0558      -8.9729      -8.9932   
  905.00000p     -9.0222      -8.9045      -8.8248      -8.8502   
  906.00000p     -8.8690      -8.7533      -8.6766      -8.7072   
  907.00000p     -8.7157      -8.6020      -8.5285      -8.5643   
  908.00000p     -8.5625      -8.4508      -8.3803      -8.4213   
  909.00000p     -8.4093      -8.2995      -8.2322      -8.2783   
  910.00000p     -8.2561      -8.1483      -8.0841      -8.1354   
  911.00000p     -8.1028      -7.9970      -7.9359      -7.9924   
  912.00000p     -7.9496      -7.8458      -7.7878      -7.8494   
  913.00000p     -7.7964      -7.6945      -7.6396      -7.7065   
  914.00000p     -7.6431      -7.5432      -7.4915      -7.5635   
  915.00000p     -7.4808      -7.3831      -7.3346      -7.4124   
  916.00000p     -7.3108      -7.2154      -7.1703      -7.2545   
  917.00000p     -7.1409      -7.0477      -7.0060      -7.0966   
  918.00000p     -6.9709      -6.8800      -6.8417      -6.9386   
  919.00000p     -6.8009      -6.7123      -6.6774      -6.7807   
  920.00000p     -6.6309      -6.5446      -6.5131      -6.6228   
  921.00000p     -6.4609      -6.3769      -6.3488      -6.4648   
  922.00000p     -6.2909      -6.2092      -6.1845      -6.3069   
  923.00000p     -6.1183      -6.0390      -6.0177      -6.1465   
  924.00000p     -5.9332      -5.8567      -5.8391      -5.9744   
  925.00000p     -5.7481      -5.6744      -5.6605      -5.8022   
  926.00000p     -5.5630      -5.4921      -5.4819      -5.6300   
  927.00000p     -5.3779      -5.3098      -5.3033      -5.4578   
  928.00000p     -5.1928      -5.1275      -5.1247      -5.2857   
  929.00000p     -5.0077      -4.9452      -4.9461      -5.1135   
  930.00000p     -4.8226      -4.7629      -4.7675      -4.9413   
  931.00000p     -4.6375      -4.5806      -4.5889      -4.7691   
  932.00000p     -4.4524      -4.3983      -4.4103      -4.5970   
  933.00000p     -4.2673      -4.2161      -4.2317      -4.4248   
  934.00000p     -4.0822      -4.0338      -4.0531      -4.2526   
  935.00000p     -3.8971      -3.8515      -3.8745      -4.0804   
  936.00000p     -3.7120      -3.6692      -3.6958      -3.9083   
  937.00000p     -3.5269      -3.4869      -3.5172      -3.7361   
  938.00000p     -3.3418      -3.3046      -3.3386      -3.5639   
  939.00000p     -3.1567      -3.1223      -3.1600      -3.3917   
  940.00000p     -2.9716      -2.9400      -2.9814      -3.2195   
  941.00000p     -2.7865      -2.7577      -2.8028      -3.0474   
  942.00000p     -2.6014      -2.5754      -2.6242      -2.8752   
  943.00000p     -2.4163      -2.3931      -2.4456      -2.7030   
  944.00000p     -2.2312      -2.2108      -2.2670      -2.5308   
  945.00000p     -2.0462      -2.0285      -2.0884      -2.3587   
  946.00000p     -1.8620      -1.8472      -1.9107      -2.1866   
  947.00000p     -1.6792      -1.6673      -1.7343      -2.0147   
  948.00000p     -1.4964      -1.4875      -1.5579      -1.8429   
  949.00000p     -1.3136      -1.3076      -1.3816      -1.6710   
  950.00000p     -1.1308      -1.1277      -1.2052      -1.4991   
  951.00000p     -1.0807      -1.0799      -1.1593      -1.4512   
  952.00000p     -1.0306      -1.0322      -1.1133      -1.4033   
  953.00000p   -980.4928m   -984.3941m     -1.0674      -1.3553   
  954.00000p   -930.3996m   -936.6205m     -1.0215      -1.3074   
  955.00000p   -880.3064m   -888.8468m   -975.5317m     -1.2595   
  956.00000p   -830.2132m   -841.0731m   -929.5999m     -1.2115   
  957.00000p   -780.1200m   -793.2994m   -883.6682m     -1.1636   
  958.00000p   -757.9795m   -773.1254m   -864.4831m     -1.1401   
  959.00000p   -737.6553m   -754.7449m   -847.0361m     -1.1182   
  960.00000p   -717.3312m   -736.3643m   -829.5891m     -1.0962   
  961.00000p   -697.0070m   -717.9837m   -812.1420m     -1.0743   
  962.00000p   -676.6828m   -699.6032m   -794.6950m     -1.0524   
  963.00000p   -656.3587m   -681.2226m   -777.2479m     -1.0304   
  964.00000p   -636.0345m   -662.8420m   -759.8009m     -1.0085   
  965.00000p   -615.7104m   -644.4614m   -742.3538m   -986.5786m  
  966.00000p   -595.3862m   -626.0809m   -724.9068m   -964.6490m  
  967.00000p   -591.0194m   -623.2073m   -722.1108m   -956.3362m  
  968.00000p   -596.3599m   -629.7671m   -728.2276m   -956.3068m  
  969.00000p   -601.7004m   -636.3269m   -734.3444m   -956.2774m  
  970.00000p   -607.0409m   -642.8867m   -740.4612m   -956.2481m  
  971.00000p   -612.3814m   -649.4466m   -746.5780m   -956.2187m  
  972.00000p   -617.7219m   -656.0064m   -752.6948m   -956.1894m  
  973.00000p   -623.0624m   -662.5662m   -758.8116m   -956.1600m  
  974.00000p   -628.4029m   -669.1260m   -764.9284m   -956.1306m  
  975.00000p   -633.7434m   -675.6858m   -771.0452m   -956.1013m  
  976.00000p   -639.0839m   -682.2456m   -777.1619m   -956.0719m  
  977.00000p   -644.4244m   -688.8055m   -783.2787m   -956.0426m  
  978.00000p   -649.7649m   -695.3653m   -789.3955m   -956.0132m  
  979.00000p   -655.1054m   -701.9251m   -795.5123m   -955.9839m  
  980.00000p   -660.4459m   -708.4849m   -801.6291m   -955.9545m  
  981.00000p   -665.7864m   -715.0447m   -807.7459m   -955.9251m  
  982.00000p   -671.1269m   -721.6045m   -813.8627m   -955.8958m  
  983.00000p   -676.4674m   -728.1644m   -819.9795m   -955.8664m  
  984.00000p   -681.8079m   -734.7242m   -826.0963m   -955.8371m  
  985.00000p   -687.1484m   -741.2840m   -832.2131m   -955.8077m  
  986.00000p   -692.4889m   -747.8438m   -838.3298m   -955.7784m  
  987.00000p   -695.5382m   -752.0382m   -842.1170m   -954.5277m  
  988.00000p   -694.5410m   -752.0551m   -841.7898m   -951.1203m  
  989.00000p   -693.5439m   -752.0721m   -841.4626m   -947.7128m  
  990.00000p   -692.5468m   -752.0890m   -841.1353m   -944.3053m  
  991.00000p   -691.5496m   -752.1059m   -840.8081m   -940.8979m  
  992.00000p   -690.5525m   -752.1228m   -840.4809m   -937.4904m  
  993.00000p   -689.5554m   -752.1398m   -840.1537m   -934.0829m  
  994.00000p   -688.5583m   -752.1567m   -839.8265m   -930.6755m  
  995.00000p   -687.5611m   -752.1736m   -839.4993m   -927.2680m  
  996.00000p   -686.5640m   -752.1906m   -839.1721m   -923.8606m  
  997.00000p   -685.5669m   -752.2075m   -838.8449m   -920.4531m  
  998.00000p   -684.5698m   -752.2244m   -838.5177m   -917.0456m  
  999.00000p   -683.5726m   -752.2413m   -838.1905m   -913.6382m  
    1.00000n   -682.5755m   -752.2583m   -837.8633m   -910.2307m  
y

          ***** job concluded
1****** HSPICE -- F-2011.09-SP1 32-BIT (Nov 18 2011) linux ******               
 ******  
 *a bus interconnect circuit with 34 bus line 16 segment.

  ******  job statistics summary tnom=  25.000 temp=  25.000 *****
  
  
 ******  Machine Information  ******
 CPU:
 model name	: Intel(R) Xeon(R) CPU           E7440  @ 2.40GHz
 cpu MHz	: 2393.895
  
 OS:
 Linux version 2.6.9-89.ELlargesmp (mockbuild@hs20-bc2-5.build.redhat.com) (gcc 
 version 3.4.6 20060404 (Red Hat 3.4.6-11)) #1 SMP Mon Apr 20 10:43:12 EDT 2009


  ******  HSPICE Threads Information  ******

  Command Line Threads Count :     1
  Available CPU Count        :    16
  Actual Threads Count       :     1


  ******  Circuit Statistics  ******
  # nodes       =    1123 # elements   =   19676
  # resistors   =     579 # capacitors =    9569 # inductors   =     544
  # mutual_inds =    8976 # vccs       =       0 # vcvs        =       0
  # cccs        =       0 # ccvs       =       0 # volt_srcs   =       0
  # curr_srcs   =       8 # diodes     =       0 # bjts        =       0
  # jfets       =       0 # mosfets    =       0 # U elements  =       0
  # T elements  =       0 # W elements =       0 # B elements  =       0
  # S elements  =       0 # P elements =       0 # va device   =       0
  # vector_srcs =       0


  ******  Runtime Statistics (seconds)  ******

  analysis           time    # points   tot. iter  conv.iter
  op point           0.05           1           3
  transient          4.18        1001         485          88 rev=         9
  readin             0.71
  errchk             5.32
  setup              0.13
  output             0.04


           peak memory used        113.35 megabytes
           total cpu time           10.43 seconds
           total elapsed time       13.63 seconds
           job started at     21:15:17 12/11/2012
           job ended   at     21:15:30 12/11/2012


 lic: Release hspice token(s) 
