Using: /apps/EDAs/synopsys/hspice/hspice/linux/hspice  -i RLC_s3.sp
 ****** HSPICE -- F-2011.09-SP1 32-BIT (Nov 18 2011) linux ******               
  Copyright (C) 2011 Synopsys, Inc. All Rights Reserved.                        
  Unpublished-rights reserved under US copyright laws.
  This program is protected by law and is subject to the
  terms and conditions of the license agreement from Synopsys.
  Use of this program is your acceptance to be bound by the
  license agreement. HSPICE is the trademark of Synopsys, Inc.
  Input File: RLC_s3.sp                                                         
  Command line options: -i RLC_s3.sp
 lic:  
 lic: FLEXlm: v10.8 
 lic: USER:   smic2009             HOSTNAME: dellr900d 
 lic: HOSTID: 0024e85bca9e         PID:      20533 
 lic: Using FLEXlm license file: 
 lic: 5280@su16 
 lic: Checkout 1 hspice 
 lic: License/Maintenance for hspice will expire on 24-mar-2013/2011.09 
 lic: 1(in_use)/140(total) FLOATING license(s) on SERVER su16 
 lic:   
 Init: read install configuration file: /apps/EDAs/synopsys/hspice/hspice/meta.cfg
1****** HSPICE -- F-2011.09-SP1 32-BIT (Nov 18 2011) linux ******               
 ******  
 * example rlc-3

  ******  circuit name directory
 circuit number to circuit name directory
   number circuitname                     definition         multiplier
        0 main circuit
        1 x1.                             seg                1.00 
        2 x2.                             seg                1.00 
        3 x3.                             seg                1.00 
  **info** (RLC_s3.sp:4) DC voltage reset to initial transient source value              in source        0:vin                 new dc=  0.0000D+00
  
      
 *****************************************************************
 ******  option summary
 ******
 runlvl  = 3         bypass  = 2         

 **info** rebuilding matrix with pivot option

1****** HSPICE -- F-2011.09-SP1 32-BIT (Nov 18 2011) linux ******               
 ******  
 * example rlc-3

  ******  operating point information tnom=  25.000 temp=  25.000 *****
 ***** operating point status is voltage   simulation time is     0.     
    node    =voltage      node    =voltage      node    =voltage

 +0:n_in1   =   0.      0:n_in2   =   0.      0:n_in3   =   0.     
 +0:n_out   =   0.      1:n_1     =   0.      2:n_1     =   0.     
 +3:n_1     =   0.     

 ******  
 * example rlc-3

  ******  transient analysis tnom=  25.000 temp=  25.000 *****
x

        time    voltage      voltage    
                   n_out        n_in1   
    0.            0.           0.       
    4.00000u      0.          15.0796m  
    8.00000u      0.          30.1582m  
   12.00000u      0.          45.2365m  
   16.00000u     51.7480n     60.3131m  
   20.00000u    421.3763n     75.3796m  
   24.00000u    791.0046n     90.4461m  
   28.00000u      1.1606u    105.5127m  
   32.00000u      1.5303u    120.5792m  
   36.00000u      1.8999u    135.6457m  
   40.00000u      2.2695u    150.7122m  
   44.00000u      2.6391u    165.7788m  
   48.00000u      3.0088u    180.8453m  
   52.00000u     77.7947u    195.8184m  
   56.00000u    156.6625u    210.7865m  
   60.00000u    235.5303u    225.7545m  
   64.00000u    314.3981u    240.7226m  
   68.00000u    393.2660u    255.6906m  
   72.00000u    472.1338u    270.6587m  
   76.00000u    551.0016u    285.6267m  
   80.00000u    629.8694u    300.5947m  
   84.00000u    708.7372u    315.5628m  
   88.00000u    787.6050u    330.5308m  
   92.00000u    866.4729u    345.4989m  
   96.00000u    945.3407u    360.4669m  
  100.00000u      1.0242m    375.4350m  
  104.00000u      1.1031m    390.4030m  
  108.00000u      1.1819m    405.3710m  
  112.00000u      1.2608m    420.3391m  
  116.00000u      1.3397m    435.3071m  
  120.00000u      1.4185m    450.2752m  
  124.00000u      1.4974m    465.2432m  
  128.00000u      1.5763m    480.2112m  
  132.00000u      1.6552m    495.1793m  
  136.00000u      1.7340m    510.1473m  
  140.00000u      2.0124m    525.0016m  
  144.00000u      2.6035m    539.6775m  
  148.00000u      3.1946m    554.3534m  
  152.00000u      3.7857m    569.0294m  
  156.00000u      4.3768m    583.7053m  
  160.00000u      4.9679m    598.3812m  
  164.00000u      5.5590m    613.0572m  
  168.00000u      6.1501m    627.7331m  
  172.00000u      6.7412m    642.4090m  
  176.00000u      7.3323m    657.0849m  
  180.00000u      7.9234m    671.7609m  
  184.00000u      8.5145m    686.4368m  
  188.00000u      9.1056m    701.1127m  
  192.00000u      9.6967m    715.7887m  
  196.00000u     10.2877m    730.4646m  
  200.00000u     10.8788m    745.1405m  
  204.00000u     11.4699m    759.8165m  
  208.00000u     12.0610m    774.4924m  
  212.00000u     12.6521m    789.1683m  
  216.00000u     13.2432m    803.8442m  
  220.00000u     13.8343m    818.5202m  
  224.00000u     14.4254m    833.1961m  
  228.00000u     15.4960m    847.7477m  
  232.00000u     18.3607m    861.8342m  
  236.00000u     21.2254m    875.9207m  
  240.00000u     24.0901m    890.0071m  
  244.00000u     26.9547m    904.0936m  
  248.00000u     29.8194m    918.1801m  
  252.00000u     32.6841m    932.2665m  
  256.00000u     35.5488m    946.3530m  
  260.00000u     38.4135m    960.4395m  
  264.00000u     41.2782m    974.5259m  
  268.00000u     44.1429m    988.6124m  
  272.00000u     47.0076m      1.0027   
  276.00000u     49.8722m      1.0168   
  280.00000u     52.7369m      1.0309   
  284.00000u     55.6016m      1.0450   
  288.00000u     58.4663m      1.0590   
  292.00000u     61.3310m      1.0731   
  296.00000u     64.1957m      1.0872   
  300.00000u     67.0604m      1.1013   
  304.00000u     69.9250m      1.1154   
  308.00000u     72.7897m      1.1295   
  312.00000u     75.6544m      1.1436   
  316.00000u     78.5191m      1.1576   
  320.00000u     81.3838m      1.1717   
  324.00000u     84.2485m      1.1858   
  328.00000u     87.1132m      1.1999   
  332.00000u     89.9779m      1.2140   
  336.00000u     92.8425m      1.2281   
  340.00000u     95.7072m      1.2422   
  344.00000u     98.5719m      1.2563   
  348.00000u    101.4366m      1.2703   
  352.00000u    106.7915m      1.2839   
  356.00000u    113.7592m      1.2972   
  360.00000u    120.7268m      1.3104   
  364.00000u    127.6945m      1.3237   
  368.00000u    134.6622m      1.3369   
  372.00000u    141.6298m      1.3502   
  376.00000u    148.5975m      1.3634   
  380.00000u    155.5652m      1.3767   
  384.00000u    162.5328m      1.3899   
  388.00000u    169.5005m      1.4031   
  392.00000u    176.4682m      1.4164   
  396.00000u    183.4358m      1.4296   
  400.00000u    190.4035m      1.4429   
  404.00000u    197.3712m      1.4561   
  408.00000u    204.3388m      1.4694   
  412.00000u    211.3065m      1.4826   
  416.00000u    218.2742m      1.4959   
  420.00000u    225.2418m      1.5091   
  424.00000u    232.2095m      1.5224   
  428.00000u    239.1772m      1.5356   
  432.00000u    246.1448m      1.5489   
  436.00000u    253.1125m      1.5621   
  440.00000u    260.0802m      1.5754   
  444.00000u    269.9936m      1.5880   
  448.00000u    281.7029m      1.6002   
  452.00000u    293.4123m      1.6125   
  456.00000u    305.1217m      1.6247   
  460.00000u    316.8311m      1.6369   
  464.00000u    328.5405m      1.6492   
  468.00000u    340.2498m      1.6614   
  472.00000u    351.9592m      1.6736   
  476.00000u    363.6686m      1.6859   
  480.00000u    375.3780m      1.6981   
  484.00000u    387.0873m      1.7103   
  488.00000u    398.7967m      1.7226   
  492.00000u    410.5061m      1.7348   
  496.00000u    422.2155m      1.7470   
  500.00000u    433.9249m      1.7593   
  504.00000u    445.6342m      1.7715   
  508.00000u    457.3436m      1.7837   
  512.00000u    469.0530m      1.7960   
  516.00000u    480.7624m      1.8082   
  520.00000u    492.4718m      1.8204   
  524.00000u    504.1811m      1.8327   
  528.00000u    515.8905m      1.8449   
  532.00000u    527.5999m      1.8571   
  536.00000u    539.3093m      1.8694   
  540.00000u    551.0186m      1.8816   
  544.00000u    562.7280m      1.8938   
  548.00000u    574.4374m      1.9061   
  552.00000u    587.4940m      1.9178   
  556.00000u    602.7641m      1.9288   
  560.00000u    618.0342m      1.9397   
  564.00000u    633.3044m      1.9506   
  568.00000u    648.5745m      1.9616   
  572.00000u    663.8446m      1.9725   
  576.00000u    679.1147m      1.9835   
  580.00000u    694.3848m      1.9944   
  584.00000u    709.6549m      2.0053   
  588.00000u    724.9251m      2.0163   
  592.00000u    740.1952m      2.0272   
  596.00000u    755.4653m      2.0382   
  600.00000u    770.7354m      2.0491   
  604.00000u    786.0055m      2.0600   
  608.00000u    801.2757m      2.0710   
  612.00000u    816.5458m      2.0819   
  616.00000u    831.8159m      2.0929   
  620.00000u    847.0860m      2.1038   
  624.00000u    862.3561m      2.1147   
  628.00000u    877.6262m      2.1257   
  632.00000u    892.8964m      2.1366   
  636.00000u    908.1665m      2.1476   
  640.00000u    923.4366m      2.1585   
  644.00000u    938.7067m      2.1694   
  648.00000u    953.9768m      2.1804   
  652.00000u    969.2470m      2.1913   
  656.00000u    984.5171m      2.2023   
  660.00000u      1.0006       2.2120   
  664.00000u      1.0169       2.2215   
  668.00000u      1.0331       2.2311   
  672.00000u      1.0493       2.2406   
  676.00000u      1.0655       2.2502   
  680.00000u      1.0818       2.2598   
  684.00000u      1.0980       2.2693   
  688.00000u      1.1142       2.2789   
  692.00000u      1.1304       2.2884   
  696.00000u      1.1466       2.2980   
  700.00000u      1.1629       2.3076   
  704.00000u      1.1791       2.3171   
  708.00000u      1.1953       2.3267   
  712.00000u      1.2115       2.3362   
  716.00000u      1.2277       2.3458   
  720.00000u      1.2440       2.3554   
  724.00000u      1.2602       2.3649   
  728.00000u      1.2764       2.3745   
  732.00000u      1.2926       2.3840   
  736.00000u      1.3089       2.3936   
  740.00000u      1.3251       2.4032   
  744.00000u      1.3413       2.4127   
  748.00000u      1.3575       2.4223   
  752.00000u      1.3734       2.4313   
  756.00000u      1.3891       2.4397   
  760.00000u      1.4047       2.4481   
  764.00000u      1.4203       2.4565   
  768.00000u      1.4360       2.4649   
  772.00000u      1.4516       2.4733   
  776.00000u      1.4672       2.4817   
  780.00000u      1.4829       2.4901   
  784.00000u      1.4985       2.4985   
  788.00000u      1.5141       2.5069   
  792.00000u      1.5298       2.5154   
  796.00000u      1.5454       2.5238   
  800.00000u      1.5610       2.5322   
  804.00000u      1.5767       2.5406   
  808.00000u      1.5923       2.5490   
  812.00000u      1.6078       2.5567   
  816.00000u      1.6233       2.5644   
  820.00000u      1.6388       2.5720   
  824.00000u      1.6543       2.5797   
  828.00000u      1.6698       2.5874   
  832.00000u      1.6853       2.5950   
  836.00000u      1.7009       2.6027   
  840.00000u      1.7164       2.6104   
  844.00000u      1.7318       2.6177   
  848.00000u      1.7469       2.6241   
  852.00000u      1.7619       2.6306   
  856.00000u      1.7770       2.6370   
  860.00000u      1.7921       2.6435   
  864.00000u      1.8072       2.6499   
  868.00000u      1.8223       2.6563   
  872.00000u      1.8374       2.6628   
  876.00000u      1.8525       2.6692   
  880.00000u      1.8676       2.6757   
  884.00000u      1.8827       2.6821   
  888.00000u      1.8977       2.6885   
  892.00000u      1.9128       2.6950   
  896.00000u      1.9279       2.7014   
  900.00000u      1.9430       2.7079   
  904.00000u      1.9581       2.7143   
  908.00000u      1.9732       2.7207   
  912.00000u      1.9883       2.7272   
  916.00000u      2.0034       2.7336   
  920.00000u      2.0185       2.7400   
  924.00000u      2.0335       2.7465   
  928.00000u      2.0486       2.7529   
  932.00000u      2.0637       2.7594   
  936.00000u      2.0788       2.7658   
  940.00000u      2.0939       2.7722   
  944.00000u      2.1090       2.7787   
  948.00000u      2.1241       2.7851   
  952.00000u      2.1392       2.7916   
  956.00000u      2.1539       2.7971   
  960.00000u      2.1681       2.8015   
  964.00000u      2.1823       2.8059   
  968.00000u      2.1966       2.8103   
  972.00000u      2.2108       2.8146   
  976.00000u      2.2250       2.8190   
  980.00000u      2.2392       2.8234   
  984.00000u      2.2534       2.8278   
  988.00000u      2.2677       2.8321   
  992.00000u      2.2819       2.8365   
  996.00000u      2.2961       2.8409   
    1.00000m      2.3103       2.8453   
    1.00400m      2.3245       2.8497   
    1.00800m      2.3388       2.8540   
    1.01200m      2.3530       2.8584   
    1.01600m      2.3672       2.8628   
    1.02000m      2.3814       2.8672   
    1.02400m      2.3956       2.8716   
    1.02800m      2.4099       2.8759   
    1.03200m      2.4241       2.8803   
    1.03600m      2.4383       2.8847   
    1.04000m      2.4525       2.8891   
    1.04400m      2.4667       2.8935   
    1.04800m      2.4810       2.8978   
    1.05200m      2.4952       2.9022   
    1.05600m      2.5094       2.9066   
    1.06000m      2.5236       2.9110   
    1.06400m      2.5378       2.9154   
    1.06800m      2.5521       2.9197   
    1.07200m      2.5663       2.9241   
    1.07600m      2.5805       2.9285   
    1.08000m      2.5929       2.9308   
    1.08400m      2.6052       2.9328   
    1.08800m      2.6175       2.9349   
    1.09200m      2.6298       2.9370   
    1.09600m      2.6421       2.9391   
    1.10000m      2.6544       2.9412   
    1.10400m      2.6667       2.9433   
    1.10800m      2.6789       2.9454   
    1.11200m      2.6912       2.9475   
    1.11600m      2.7035       2.9496   
    1.12000m      2.7158       2.9517   
    1.12400m      2.7281       2.9538   
    1.12800m      2.7404       2.9559   
    1.13200m      2.7527       2.9580   
    1.13600m      2.7650       2.9601   
    1.14000m      2.7772       2.9622   
    1.14400m      2.7895       2.9643   
    1.14800m      2.8018       2.9664   
    1.15200m      2.8141       2.9685   
    1.15600m      2.8264       2.9706   
    1.16000m      2.8387       2.9727   
    1.16400m      2.8510       2.9747   
    1.16800m      2.8633       2.9768   
    1.17200m      2.8755       2.9789   
    1.17600m      2.8878       2.9810   
    1.18000m      2.9001       2.9831   
    1.18400m      2.9124       2.9852   
    1.18800m      2.9247       2.9873   
    1.19200m      2.9370       2.9894   
    1.19600m      2.9493       2.9915   
    1.20000m      2.9616       2.9936   
    1.20400m      2.9726       2.9947   
    1.20800m      2.9828       2.9952   
    1.21200m      2.9930       2.9956   
    1.21600m      3.0031       2.9961   
    1.22000m      3.0133       2.9966   
    1.22400m      3.0235       2.9970   
    1.22800m      3.0337       2.9975   
    1.23200m      3.0439       2.9979   
    1.23600m      3.0541       2.9984   
    1.24000m      3.0642       2.9989   
    1.24400m      3.0744       2.9993   
    1.24800m      3.0846       2.9998   
    1.25200m      3.0931       2.9996   
    1.25600m      3.1000       2.9989   
    1.26000m      3.1069       2.9982   
    1.26400m      3.1137       2.9974   
    1.26800m      3.1206       2.9967   
    1.27200m      3.1275       2.9960   
    1.27600m      3.1344       2.9952   
    1.28000m      3.1412       2.9945   
    1.28400m      3.1481       2.9938   
    1.28800m      3.1550       2.9930   
    1.29200m      3.1619       2.9923   
    1.29600m      3.1687       2.9916   
    1.30000m      3.1756       2.9908   
    1.30400m      3.1825       2.9901   
    1.30800m      3.1894       2.9894   
    1.31200m      3.1962       2.9886   
    1.31600m      3.2031       2.9879   
    1.32000m      3.2100       2.9872   
    1.32400m      3.2169       2.9864   
    1.32800m      3.2237       2.9856   
    1.33200m      3.2301       2.9838   
    1.33600m      3.2365       2.9821   
    1.34000m      3.2429       2.9804   
    1.34400m      3.2493       2.9786   
    1.34800m      3.2557       2.9769   
    1.35200m      3.2621       2.9752   
    1.35600m      3.2684       2.9734   
    1.36000m      3.2728       2.9705   
    1.36400m      3.2773       2.9677   
    1.36800m      3.2818       2.9648   
    1.37200m      3.2863       2.9620   
    1.37600m      3.2908       2.9591   
    1.38000m      3.2953       2.9563   
    1.38400m      3.2998       2.9535   
    1.38800m      3.3043       2.9506   
    1.39200m      3.3088       2.9478   
    1.39600m      3.3133       2.9449   
    1.40000m      3.3178       2.9421   
    1.40400m      3.3222       2.9392   
    1.40800m      3.3267       2.9364   
    1.41200m      3.3312       2.9336   
    1.41600m      3.3357       2.9307   
    1.42000m      3.3402       2.9279   
    1.42400m      3.3447       2.9250   
    1.42800m      3.3492       2.9222   
    1.43200m      3.3537       2.9193   
    1.43600m      3.3582       2.9165   
    1.44000m      3.3627       2.9137   
    1.44400m      3.3672       2.9108   
    1.44800m      3.3704       2.9072   
    1.45200m      3.3718       2.9025   
    1.45600m      3.3732       2.8978   
    1.46000m      3.3746       2.8930   
    1.46400m      3.3761       2.8883   
    1.46800m      3.3775       2.8836   
    1.47200m      3.3789       2.8789   
    1.47600m      3.3803       2.8742   
    1.48000m      3.3817       2.8695   
    1.48400m      3.3832       2.8648   
    1.48800m      3.3846       2.8600   
    1.49200m      3.3860       2.8553   
    1.49600m      3.3874       2.8506   
    1.50000m      3.3889       2.8459   
    1.50400m      3.3903       2.8412   
    1.50800m      3.3917       2.8365   
    1.51200m      3.3931       2.8317   
    1.51600m      3.3945       2.8270   
    1.52000m      3.3960       2.8223   
    1.52400m      3.3974       2.8176   
    1.52800m      3.3988       2.8129   
    1.53200m      3.4002       2.8082   
    1.53600m      3.4016       2.8035   
    1.54000m      3.4031       2.7987   
    1.54400m      3.4045       2.7940   
    1.54800m      3.4059       2.7893   
    1.55200m      3.4073       2.7846   
    1.55600m      3.4088       2.7799   
    1.56000m      3.4102       2.7752   
    1.56400m      3.4084       2.7683   
    1.56800m      3.4064       2.7613   
    1.57200m      3.4044       2.7544   
    1.57600m      3.4024       2.7474   
    1.58000m      3.4005       2.7404   
    1.58400m      3.3985       2.7334   
    1.58800m      3.3965       2.7264   
    1.59200m      3.3945       2.7194   
    1.59600m      3.3925       2.7125   
    1.60000m      3.3905       2.7055   
    1.60400m      3.3885       2.6985   
    1.60800m      3.3865       2.6915   
    1.61200m      3.3845       2.6845   
    1.61600m      3.3825       2.6775   
    1.62000m      3.3806       2.6706   
    1.62400m      3.3786       2.6636   
    1.62800m      3.3766       2.6566   
    1.63200m      3.3746       2.6496   
    1.63600m      3.3726       2.6426   
    1.64000m      3.3706       2.6356   
    1.64400m      3.3686       2.6287   
    1.64800m      3.3666       2.6217   
    1.65200m      3.3646       2.6147   
    1.65600m      3.3626       2.6077   
    1.66000m      3.3606       2.6007   
    1.66400m      3.3587       2.5937   
    1.66800m      3.3567       2.5868   
    1.67200m      3.3547       2.5798   
    1.67600m      3.3527       2.5728   
    1.68000m      3.3507       2.5658   
    1.68400m      3.3487       2.5588   
    1.68800m      3.3467       2.5518   
    1.69200m      3.3447       2.5449   
    1.69600m      3.3427       2.5379   
    1.70000m      3.3407       2.5309   
    1.70400m      3.3387       2.5239   
    1.70800m      3.3363       2.5166   
    1.71200m      3.3321       2.5081   
    1.71600m      3.3278       2.4996   
    1.72000m      3.3235       2.4910   
    1.72400m      3.3193       2.4825   
    1.72800m      3.3150       2.4740   
    1.73200m      3.3107       2.4654   
    1.73600m      3.3065       2.4569   
    1.74000m      3.3022       2.4484   
    1.74400m      3.2980       2.4398   
    1.74800m      3.2937       2.4313   
    1.75200m      3.2884       2.4224   
    1.75600m      3.2821       2.4130   
    1.76000m      3.2758       2.4036   
    1.76400m      3.2695       2.3942   
    1.76800m      3.2632       2.3849   
    1.77200m      3.2569       2.3755   
    1.77600m      3.2506       2.3661   
    1.78000m      3.2443       2.3567   
    1.78400m      3.2379       2.3474   
    1.78800m      3.2316       2.3380   
    1.79200m      3.2253       2.3286   
    1.79600m      3.2190       2.3192   
    1.80000m      3.2127       2.3098   
    1.80400m      3.2064       2.3005   
    1.80800m      3.2001       2.2911   
    1.81200m      3.1938       2.2817   
    1.81600m      3.1875       2.2723   
    1.82000m      3.1810       2.2627   
    1.82400m      3.1743       2.2525   
    1.82800m      3.1676       2.2424   
    1.83200m      3.1609       2.2323   
    1.83600m      3.1542       2.2221   
    1.84000m      3.1475       2.2120   
    1.84400m      3.1408       2.2019   
    1.84800m      3.1340       2.1918   
    1.85200m      3.1273       2.1816   
    1.85600m      3.1197       2.1710   
    1.86000m      3.1114       2.1598   
    1.86400m      3.1031       2.1487   
    1.86800m      3.0947       2.1376   
    1.87200m      3.0864       2.1265   
    1.87600m      3.0780       2.1154   
    1.88000m      3.0697       2.1043   
    1.88400m      3.0613       2.0931   
    1.88800m      3.0530       2.0820   
    1.89200m      3.0447       2.0709   
    1.89600m      3.0363       2.0598   
    1.90000m      3.0280       2.0487   
    1.90400m      3.0196       2.0375   
    1.90800m      3.0113       2.0264   
    1.91200m      3.0030       2.0153   
    1.91600m      2.9946       2.0042   
    1.92000m      2.9863       1.9931   
    1.92400m      2.9779       1.9819   
    1.92800m      2.9696       1.9708   
    1.93200m      2.9612       1.9597   
    1.93600m      2.9529       1.9486   
    1.94000m      2.9446       1.9375   
    1.94400m      2.9362       1.9263   
    1.94800m      2.9279       1.9152   
    1.95200m      2.9195       1.9041   
    1.95600m      2.9112       1.8930   
    1.96000m      2.9028       1.8819   
    1.96400m      2.8945       1.8707   
    1.96800m      2.8857       1.8594   
    1.97200m      2.8750       1.8468   
    1.97600m      2.8643       1.8343   
    1.98000m      2.8536       1.8218   
    1.98400m      2.8429       1.8092   
    1.98800m      2.8322       1.7967   
    1.99200m      2.8215       1.7842   
    1.99600m      2.8107       1.7716   
    2.00000m      2.8000       1.7591   
    2.00400m      2.7893       1.7466   
    2.00800m      2.7786       1.7340   
    2.01200m      2.7679       1.7215   
    2.01600m      2.7572       1.7089   
    2.02000m      2.7465       1.6964   
    2.02400m      2.7358       1.6839   
    2.02800m      2.7250       1.6713   
    2.03200m      2.7143       1.6588   
    2.03600m      2.7036       1.6463   
    2.04000m      2.6929       1.6337   
    2.04400m      2.6822       1.6212   
    2.04800m      2.6715       1.6087   
    2.05200m      2.6608       1.5961   
    2.05600m      2.6501       1.5836   
    2.06000m      2.6393       1.5710   
    2.06400m      2.6286       1.5585   
    2.06800m      2.6179       1.5460   
    2.07200m      2.6072       1.5334   
    2.07600m      2.5965       1.5209   
    2.08000m      2.5858       1.5084   
    2.08400m      2.5751       1.4958   
    2.08800m      2.5644       1.4833   
    2.09200m      2.5536       1.4708   
    2.09600m      2.5429       1.4582   
    2.10000m      2.5306       1.4447   
    2.10400m      2.5174       1.4306   
    2.10800m      2.5042       1.4165   
    2.11200m      2.4910       1.4024   
    2.11600m      2.4778       1.3883   
    2.12000m      2.4646       1.3742   
    2.12400m      2.4513       1.3601   
    2.12800m      2.4381       1.3460   
    2.13200m      2.4249       1.3319   
    2.13600m      2.4117       1.3178   
    2.14000m      2.3985       1.3037   
    2.14400m      2.3853       1.2896   
    2.14800m      2.3721       1.2756   
    2.15200m      2.3589       1.2615   
    2.15600m      2.3457       1.2474   
    2.16000m      2.3324       1.2333   
    2.16400m      2.3192       1.2192   
    2.16800m      2.3060       1.2051   
    2.17200m      2.2928       1.1910   
    2.17600m      2.2796       1.1769   
    2.18000m      2.2664       1.1628   
    2.18400m      2.2532       1.1487   
    2.18800m      2.2400       1.1346   
    2.19200m      2.2267       1.1205   
    2.19600m      2.2135       1.1064   
    2.20000m      2.2003       1.0923   
    2.20400m      2.1871       1.0782   
    2.20800m      2.1739       1.0641   
    2.21200m      2.1607       1.0500   
    2.21600m      2.1475       1.0359   
    2.22000m      2.1343       1.0218   
    2.22400m      2.1211       1.0078   
    2.22800m      2.1078     993.6580m  
    2.23200m      2.0946     979.5633m  
    2.23600m      2.0814     965.4686m  
    2.24000m      2.0682     951.3739m  
    2.24400m      2.0550     937.2791m  
    2.24800m      2.0418     923.1844m  
    2.25200m      2.0286     909.0897m  
    2.25600m      2.0154     894.9950m  
    2.26000m      2.0021     880.9002m  
    2.26400m      1.9889     866.8055m  
    2.26800m      1.9757     852.7108m  
    2.27200m      1.9625     838.6161m  
    2.27600m      1.9493     824.5214m  
    2.28000m      1.9361     810.4266m  
    2.28400m      1.9229     796.3319m  
    2.28800m      1.9097     782.2372m  
    2.29200m      1.8964     768.1425m  
    2.29600m      1.8832     754.0477m  
    2.30000m      1.8700     739.9530m  
    2.30400m      1.8568     725.8583m  
    2.30800m      1.8436     711.7636m  
    2.31200m      1.8304     697.6689m  
    2.31600m      1.8172     683.5741m  
    2.32000m      1.8040     669.4794m  
    2.32400m      1.7908     655.3847m  
    2.32800m      1.7775     641.2900m  
    2.33200m      1.7643     627.1952m  
    2.33600m      1.7511     613.1005m  
    2.34000m      1.7379     599.0058m  
    2.34400m      1.7231     584.1875m  
    2.34800m      1.7080     569.2083m  
    2.35200m      1.6928     554.2292m  
    2.35600m      1.6777     539.2500m  
    2.36000m      1.6626     524.2708m  
    2.36400m      1.6474     509.2917m  
    2.36800m      1.6323     494.3125m  
    2.37200m      1.6171     479.3333m  
    2.37600m      1.6020     464.3542m  
    2.38000m      1.5868     449.3750m  
    2.38400m      1.5717     434.3958m  
    2.38800m      1.5566     419.4167m  
    2.39200m      1.5414     404.4375m  
    2.39600m      1.5263     389.4583m  
    2.40000m      1.5111     374.4792m  
    2.40400m      1.4960     359.5000m  
    2.40800m      1.4809     344.5208m  
    2.41200m      1.4657     329.5417m  
    2.41600m      1.4506     314.5625m  
    2.42000m      1.4354     299.5833m  
    2.42400m      1.4203     284.6042m  
    2.42800m      1.4051     269.6250m  
    2.43200m      1.3900     254.6458m  
    2.43600m      1.3749     239.6667m  
    2.44000m      1.3597     224.6875m  
    2.44400m      1.3446     209.7083m  
    2.44800m      1.3294     194.7292m  
    2.45200m      1.3143     179.7500m  
    2.45600m      1.2992     164.7708m  
    2.46000m      1.2840     149.7917m  
    2.46400m      1.2689     134.8125m  
    2.46800m      1.2537     119.8333m  
    2.47200m      1.2386     104.8542m  
    2.47600m      1.2235      89.8750m  
    2.48000m      1.2083      74.8958m  
    2.48400m      1.1932      59.9167m  
    2.48800m      1.1780      44.9375m  
    2.49200m      1.1629      29.9583m  
    2.49600m      1.1477      14.9792m  
    2.50000m      1.1326       0.       
    2.50400m      1.1164     -15.0218m  
    2.50800m      1.1002     -30.0437m  
    2.51200m      1.0840     -45.0655m  
    2.51600m      1.0678     -60.0874m  
    2.52000m      1.0516     -75.1092m  
    2.52400m      1.0354     -90.1311m  
    2.52800m      1.0192    -105.1529m  
    2.53200m      1.0030    -120.1748m  
    2.53600m    986.8367m   -135.1966m  
    2.54000m    970.6406m   -150.2185m  
    2.54400m    954.4445m   -165.2403m  
    2.54800m    938.2484m   -180.2622m  
    2.55200m    922.0523m   -195.2840m  
    2.55600m    905.8562m   -210.3059m  
    2.56000m    889.6602m   -225.3277m  
    2.56400m    873.4641m   -240.3496m  
    2.56800m    857.2680m   -255.3714m  
    2.57200m    841.0719m   -270.3933m  
    2.57600m    824.8758m   -285.4151m  
    2.58000m    808.6798m   -300.4369m  
    2.58400m    792.4837m   -315.4588m  
    2.58800m    776.2876m   -330.4806m  
    2.59200m    760.0915m   -345.5025m  
    2.59600m    743.8954m   -360.5243m  
    2.60000m    727.6994m   -375.5462m  
    2.60400m    711.5033m   -390.5680m  
    2.60800m    695.3072m   -405.5899m  
    2.61200m    679.1111m   -420.6117m  
    2.61600m    662.9150m   -435.6336m  
    2.62000m    646.7190m   -450.6554m  
    2.62400m    630.4439m   -465.5002m  
    2.62800m    614.1506m   -480.3043m  
    2.63200m    597.8574m   -495.1084m  
    2.63600m    581.5642m   -509.9126m  
    2.64000m    565.2710m   -524.7167m  
    2.64400m    548.9778m   -539.5208m  
    2.64800m    532.6846m   -554.3249m  
    2.65200m    516.3913m   -569.1291m  
    2.65600m    500.0981m   -583.9332m  
    2.66000m    483.8049m   -598.7373m  
    2.66400m    467.5117m   -613.5415m  
    2.66800m    451.2185m   -628.3456m  
    2.67200m    434.9252m   -643.1497m  
    2.67600m    418.6320m   -657.9538m  
    2.68000m    402.3388m   -672.7580m  
    2.68400m    386.0111m   -687.2083m  
    2.68800m    369.6513m   -701.3296m  
    2.69200m    353.2916m   -715.4509m  
    2.69600m    336.9318m   -729.5722m  
    2.70000m    320.5721m   -743.6935m  
    2.70400m    304.2123m   -757.8148m  
    2.70800m    287.8525m   -771.9360m  
    2.71200m    271.4928m   -786.0573m  
    2.71600m    255.1330m   -800.1786m  
    2.72000m    238.7732m   -814.2999m  
    2.72400m    222.4135m   -828.4212m  
    2.72800m    206.0537m   -842.5425m  
    2.73200m    189.6940m   -856.6638m  
    2.73600m    173.3342m   -870.7851m  
    2.74000m    156.9744m   -884.9064m  
    2.74400m    140.6147m   -899.0277m  
    2.74800m    124.2549m   -913.1490m  
    2.75200m    107.8951m   -927.2703m  
    2.75600m     91.5354m   -941.3916m  
    2.76000m     75.1756m   -955.5128m  
    2.76400m     58.8159m   -969.6341m  
    2.76800m     42.4561m   -983.7554m  
    2.77200m     26.0963m   -997.8767m  
    2.77600m      9.7366m     -1.0120   
    2.78000m     -6.6232m     -1.0261   
    2.78400m    -22.9830m     -1.0402   
    2.78800m    -39.3427m     -1.0544   
    2.79200m    -55.7025m     -1.0685   
    2.79600m    -72.0622m     -1.0826   
    2.80000m    -88.4220m     -1.0967   
    2.80400m   -104.7818m     -1.1108   
    2.80800m   -121.1415m     -1.1250   
    2.81200m   -137.5013m     -1.1391   
    2.81600m   -153.8611m     -1.1532   
    2.82000m   -170.2208m     -1.1673   
    2.82400m   -186.5806m     -1.1815   
    2.82800m   -202.9403m     -1.1956   
    2.83200m   -219.3001m     -1.2097   
    2.83600m   -235.6599m     -1.2238   
    2.84000m   -252.0196m     -1.2379   
    2.84400m   -268.3794m     -1.2521   
    2.84800m   -284.7392m     -1.2662   
    2.85200m   -301.0989m     -1.2803   
    2.85600m   -317.4587m     -1.2944   
    2.86000m   -333.8184m     -1.3085   
    2.86400m   -350.1782m     -1.3227   
    2.86800m   -366.5380m     -1.3368   
    2.87200m   -382.8977m     -1.3509   
    2.87600m   -399.2575m     -1.3650   
    2.88000m   -415.2675m     -1.3781   
    2.88400m   -431.0173m     -1.3904   
    2.88800m   -446.7670m     -1.4027   
    2.89200m   -462.5168m     -1.4150   
    2.89600m   -478.2666m     -1.4273   
    2.90000m   -494.0164m     -1.4396   
    2.90400m   -509.7662m     -1.4519   
    2.90800m   -525.5159m     -1.4642   
    2.91200m   -541.2657m     -1.4765   
    2.91600m   -557.0155m     -1.4888   
    2.92000m   -572.7653m     -1.5011   
    2.92400m   -588.5151m     -1.5135   
    2.92800m   -604.2649m     -1.5258   
    2.93200m   -620.0146m     -1.5381   
    2.93600m   -635.7644m     -1.5504   
    2.94000m   -651.5142m     -1.5627   
    2.94400m   -667.2640m     -1.5750   
    2.94800m   -683.0138m     -1.5873   
    2.95200m   -698.7635m     -1.5996   
    2.95600m   -714.5133m     -1.6119   
    2.96000m   -730.2631m     -1.6242   
    2.96400m   -746.0129m     -1.6365   
    2.96800m   -761.7627m     -1.6488   
    2.97200m   -777.5124m     -1.6611   
    2.97600m   -793.2622m     -1.6734   
    2.98000m   -809.0120m     -1.6857   
    2.98400m   -824.7618m     -1.6980   
    2.98800m   -840.5116m     -1.7103   
    2.99200m   -856.2614m     -1.7226   
    2.99600m   -872.0111m     -1.7349   
    3.00000m   -887.7609m     -1.7472   
    3.00400m   -903.5107m     -1.7595   
    3.00800m   -919.2605m     -1.7718   
    3.01200m   -935.0103m     -1.7841   
    3.01600m   -950.7600m     -1.7964   
    3.02000m   -966.5098m     -1.8087   
    3.02400m   -982.2596m     -1.8211   
    3.02800m   -998.0094m     -1.8334   
    3.03200m     -1.0138      -1.8457   
    3.03600m     -1.0295      -1.8580   
    3.04000m     -1.0453      -1.8703   
    3.04400m     -1.0610      -1.8826   
    3.04800m     -1.0768      -1.8949   
    3.05200m     -1.0925      -1.9072   
    3.05600m     -1.1083      -1.9195   
    3.06000m     -1.1240      -1.9318   
    3.06400m     -1.1398      -1.9441   
    3.06800m     -1.1555      -1.9564   
    3.07200m     -1.1713      -1.9687   
    3.07600m     -1.1870      -1.9810   
    3.08000m     -1.2028      -1.9933   
    3.08400m     -1.2185      -2.0056   
    3.08800m     -1.2343      -2.0179   
    3.09200m     -1.2500      -2.0302   
    3.09600m     -1.2658      -2.0425   
    3.10000m     -1.2803      -2.0527   
    3.10400m     -1.2948      -2.0627   
    3.10800m     -1.3093      -2.0727   
    3.11200m     -1.3237      -2.0826   
    3.11600m     -1.3382      -2.0926   
    3.12000m     -1.3527      -2.1026   
    3.12400m     -1.3671      -2.1126   
    3.12800m     -1.3816      -2.1226   
    3.13200m     -1.3961      -2.1326   
    3.13600m     -1.4106      -2.1425   
    3.14000m     -1.4250      -2.1525   
    3.14400m     -1.4395      -2.1625   
    3.14800m     -1.4540      -2.1725   
    3.15200m     -1.4684      -2.1825   
    3.15600m     -1.4829      -2.1925   
    3.16000m     -1.4974      -2.2024   
    3.16400m     -1.5119      -2.2124   
    3.16800m     -1.5263      -2.2224   
    3.17200m     -1.5408      -2.2324   
    3.17600m     -1.5553      -2.2424   
    3.18000m     -1.5697      -2.2523   
    3.18400m     -1.5842      -2.2623   
    3.18800m     -1.5987      -2.2723   
    3.19200m     -1.6132      -2.2823   
    3.19600m     -1.6276      -2.2923   
    3.20000m     -1.6421      -2.3023   
    3.20400m     -1.6566      -2.3122   
    3.20800m     -1.6710      -2.3222   
    3.21200m     -1.6855      -2.3322   
    3.21600m     -1.7000      -2.3422   
    3.22000m     -1.7144      -2.3522   
    3.22400m     -1.7289      -2.3622   
    3.22800m     -1.7434      -2.3721   
    3.23200m     -1.7579      -2.3821   
    3.23600m     -1.7723      -2.3921   
    3.24000m     -1.7868      -2.4021   
    3.24400m     -1.8013      -2.4121   
    3.24800m     -1.8157      -2.4221   
    3.25200m     -1.8291      -2.4310   
    3.25600m     -1.8413      -2.4389   
    3.26000m     -1.8536      -2.4468   
    3.26400m     -1.8658      -2.4547   
    3.26800m     -1.8780      -2.4626   
    3.27200m     -1.8902      -2.4705   
    3.27600m     -1.9025      -2.4785   
    3.28000m     -1.9147      -2.4864   
    3.28400m     -1.9269      -2.4943   
    3.28800m     -1.9392      -2.5022   
    3.29200m     -1.9514      -2.5101   
    3.29600m     -1.9636      -2.5180   
    3.30000m     -1.9759      -2.5259   
    3.30400m     -1.9881      -2.5338   
    3.30800m     -2.0003      -2.5417   
    3.31200m     -2.0126      -2.5496   
    3.31600m     -2.0248      -2.5575   
    3.32000m     -2.0370      -2.5654   
    3.32400m     -2.0493      -2.5733   
    3.32800m     -2.0615      -2.5812   
    3.33200m     -2.0737      -2.5892   
    3.33600m     -2.0859      -2.5971   
    3.34000m     -2.0982      -2.6050   
    3.34400m     -2.1104      -2.6129   
    3.34800m     -2.1226      -2.6208   
    3.35200m     -2.1349      -2.6287   
    3.35600m     -2.1471      -2.6366   
    3.36000m     -2.1593      -2.6445   
    3.36400m     -2.1716      -2.6524   
    3.36800m     -2.1838      -2.6603   
    3.37200m     -2.1959      -2.6677   
    3.37600m     -2.2079      -2.6743   
    3.38000m     -2.2199      -2.6809   
    3.38400m     -2.2319      -2.6875   
    3.38800m     -2.2438      -2.6941   
    3.39200m     -2.2558      -2.7007   
    3.39600m     -2.2678      -2.7073   
    3.40000m     -2.2797      -2.7138   
    3.40400m     -2.2917      -2.7204   
    3.40800m     -2.3037      -2.7270   
    3.41200m     -2.3151      -2.7329   
    3.41600m     -2.3259      -2.7380   
    3.42000m     -2.3367      -2.7432   
    3.42400m     -2.3475      -2.7483   
    3.42800m     -2.3583      -2.7534   
    3.43200m     -2.3691      -2.7586   
    3.43600m     -2.3799      -2.7637   
    3.44000m     -2.3907      -2.7688   
    3.44400m     -2.4015      -2.7740   
    3.44800m     -2.4123      -2.7791   
    3.45200m     -2.4231      -2.7842   
    3.45600m     -2.4339      -2.7894   
    3.46000m     -2.4447      -2.7945   
    3.46400m     -2.4555      -2.7996   
    3.46800m     -2.4663      -2.8048   
    3.47200m     -2.4771      -2.8099   
    3.47600m     -2.4879      -2.8150   
    3.48000m     -2.4987      -2.8201   
    3.48400m     -2.5095      -2.8253   
    3.48800m     -2.5203      -2.8304   
    3.49200m     -2.5311      -2.8355   
    3.49600m     -2.5419      -2.8407   
    3.50000m     -2.5527      -2.8458   
    3.50400m     -2.5635      -2.8509   
    3.50800m     -2.5743      -2.8561   
    3.51200m     -2.5851      -2.8612   
    3.51600m     -2.5959      -2.8663   
    3.52000m     -2.6067      -2.8715   
    3.52400m     -2.6175      -2.8766   
    3.52800m     -2.6283      -2.8817   
    3.53200m     -2.6391      -2.8869   
    3.53600m     -2.6499      -2.8920   
    3.54000m     -2.6590      -2.8951   
    3.54400m     -2.6677      -2.8978   
    3.54800m     -2.6765      -2.9006   
    3.55200m     -2.6852      -2.9033   
    3.55600m     -2.6940      -2.9060   
    3.56000m     -2.7027      -2.9087   
    3.56400m     -2.7115      -2.9115   
    3.56800m     -2.7202      -2.9142   
    3.57200m     -2.7290      -2.9169   
    3.57600m     -2.7377      -2.9196   
    3.58000m     -2.7465      -2.9224   
    3.58400m     -2.7552      -2.9251   
    3.58800m     -2.7639      -2.9278   
    3.59200m     -2.7727      -2.9305   
    3.59600m     -2.7814      -2.9333   
    3.60000m     -2.7902      -2.9360   
    3.60400m     -2.7989      -2.9387   
    3.60800m     -2.8077      -2.9414   
    3.61200m     -2.8164      -2.9442   
    3.61600m     -2.8252      -2.9469   
    3.62000m     -2.8339      -2.9496   
    3.62400m     -2.8427      -2.9523   
    3.62800m     -2.8514      -2.9551   
    3.63200m     -2.8602      -2.9578   
    3.63600m     -2.8689      -2.9605   
    3.64000m     -2.8777      -2.9633   
    3.64400m     -2.8864      -2.9660   
    3.64800m     -2.8952      -2.9687   
    3.65200m     -2.9039      -2.9714   
    3.65600m     -2.9127      -2.9742   
    3.66000m     -2.9214      -2.9769   
    3.66400m     -2.9301      -2.9796   
    3.66800m     -2.9389      -2.9823   
    3.67200m     -2.9476      -2.9851   
    3.67600m     -2.9553      -2.9866   
    3.68000m     -2.9622      -2.9874   
    3.68400m     -2.9691      -2.9881   
    3.68800m     -2.9760      -2.9888   
    3.69200m     -2.9829      -2.9895   
    3.69600m     -2.9898      -2.9903   
    3.70000m     -2.9967      -2.9910   
    3.70400m     -3.0036      -2.9917   
    3.70800m     -3.0104      -2.9924   
    3.71200m     -3.0173      -2.9931   
    3.71600m     -3.0242      -2.9939   
    3.72000m     -3.0311      -2.9946   
    3.72400m     -3.0380      -2.9953   
    3.72800m     -3.0449      -2.9960   
    3.73200m     -3.0518      -2.9968   
    3.73600m     -3.0587      -2.9975   
    3.74000m     -3.0656      -2.9982   
    3.74400m     -3.0724      -2.9989   
    3.74800m     -3.0793      -2.9996   
    3.75200m     -3.0846      -2.9994   
    3.75600m     -3.0883      -2.9983   
    3.76000m     -3.0919      -2.9971   
    3.76400m     -3.0956      -2.9960   
    3.76800m     -3.0993      -2.9948   
    3.77200m     -3.1029      -2.9937   
    3.77600m     -3.1066      -2.9925   
    3.78000m     -3.1103      -2.9913   
    3.78400m     -3.1139      -2.9902   
    3.78800m     -3.1176      -2.9890   
    3.79200m     -3.1213      -2.9879   
    3.79600m     -3.1249      -2.9867   
    3.80000m     -3.1286      -2.9856   
    3.80400m     -3.1323      -2.9844   
    3.80800m     -3.1359      -2.9833   
    3.81200m     -3.1396      -2.9821   
    3.81600m     -3.1433      -2.9810   
    3.82000m     -3.1469      -2.9798   
    3.82400m     -3.1506      -2.9786   
    3.82800m     -3.1543      -2.9775   
    3.83200m     -3.1579      -2.9763   
    3.83600m     -3.1616      -2.9752   
    3.84000m     -3.1653      -2.9740   
    3.84400m     -3.1689      -2.9729   
    3.84800m     -3.1726      -2.9717   
    3.85200m     -3.1763      -2.9706   
    3.85600m     -3.1799      -2.9694   
    3.86000m     -3.1836      -2.9683   
    3.86400m     -3.1873      -2.9671   
    3.86800m     -3.1909      -2.9660   
    3.87200m     -3.1946      -2.9648   
    3.87600m     -3.1980      -2.9622   
    3.88000m     -3.2013      -2.9597   
    3.88400m     -3.2047      -2.9571   
    3.88800m     -3.2081      -2.9545   
    3.89200m     -3.2114      -2.9519   
    3.89600m     -3.2148      -2.9494   
    3.90000m     -3.2182      -2.9468   
    3.90400m     -3.2207      -2.9434   
    3.90800m     -3.2228      -2.9397   
    3.91200m     -3.2249      -2.9360   
    3.91600m     -3.2270      -2.9323   
    3.92000m     -3.2291      -2.9286   
    3.92400m     -3.2312      -2.9249   
    3.92800m     -3.2333      -2.9211   
    3.93200m     -3.2354      -2.9174   
    3.93600m     -3.2375      -2.9137   
    3.94000m     -3.2396      -2.9100   
    3.94400m     -3.2417      -2.9063   
    3.94800m     -3.2438      -2.9026   
    3.95200m     -3.2459      -2.8989   
    3.95600m     -3.2480      -2.8951   
    3.96000m     -3.2501      -2.8914   
    3.96400m     -3.2522      -2.8877   
    3.96800m     -3.2543      -2.8840   
    3.97200m     -3.2564      -2.8803   
    3.97600m     -3.2585      -2.8766   
    3.98000m     -3.2606      -2.8728   
    3.98400m     -3.2627      -2.8691   
    3.98800m     -3.2648      -2.8654   
    3.99200m     -3.2669      -2.8617   
    3.99600m     -3.2685      -2.8575   
    4.00000m     -3.2683      -2.8518   
    4.00400m     -3.2681      -2.8460   
    4.00800m     -3.2679      -2.8402   
    4.01200m     -3.2677      -2.8345   
    4.01600m     -3.2675      -2.8287   
    4.02000m     -3.2672      -2.8229   
    4.02400m     -3.2670      -2.8172   
    4.02800m     -3.2668      -2.8114   
    4.03200m     -3.2666      -2.8056   
    4.03600m     -3.2664      -2.7999   
    4.04000m     -3.2662      -2.7941   
    4.04400m     -3.2660      -2.7883   
    4.04800m     -3.2657      -2.7825   
    4.05200m     -3.2655      -2.7768   
    4.05600m     -3.2653      -2.7710   
    4.06000m     -3.2651      -2.7652   
    4.06400m     -3.2649      -2.7595   
    4.06800m     -3.2647      -2.7537   
    4.07200m     -3.2645      -2.7479   
    4.07600m     -3.2642      -2.7422   
    4.08000m     -3.2640      -2.7364   
    4.08400m     -3.2638      -2.7306   
    4.08800m     -3.2636      -2.7249   
    4.09200m     -3.2634      -2.7191   
    4.09600m     -3.2632      -2.7133   
    4.10000m     -3.2630      -2.7076   
    4.10400m     -3.2627      -2.7018   
    4.10800m     -3.2625      -2.6960   
    4.11200m     -3.2623      -2.6903   
    4.11600m     -3.2621      -2.6845   
    4.12000m     -3.2619      -2.6787   
    4.12400m     -3.2617      -2.6729   
    4.12800m     -3.2614      -2.6672   
    4.13200m     -3.2602      -2.6605   
    4.13600m     -3.2574      -2.6526   
    4.14000m     -3.2546      -2.6447   
    4.14400m     -3.2519      -2.6368   
    4.14800m     -3.2491      -2.6289   
    4.15200m     -3.2463      -2.6210   
    4.15600m     -3.2435      -2.6131   
    4.16000m     -3.2408      -2.6051   
    4.16400m     -3.2380      -2.5972   
    4.16800m     -3.2352      -2.5893   
    4.17200m     -3.2324      -2.5814   
    4.17600m     -3.2296      -2.5735   
    4.18000m     -3.2269      -2.5656   
    4.18400m     -3.2241      -2.5577   
    4.18800m     -3.2213      -2.5497   
    4.19200m     -3.2185      -2.5418   
    4.19600m     -3.2157      -2.5339   
    4.20000m     -3.2130      -2.5260   
    4.20400m     -3.2102      -2.5181   
    4.20800m     -3.2074      -2.5102   
    4.21200m     -3.2046      -2.5022   
    4.21600m     -3.2019      -2.4943   
    4.22000m     -3.1991      -2.4864   
    4.22400m     -3.1963      -2.4785   
    4.22800m     -3.1935      -2.4706   
    4.23200m     -3.1907      -2.4627   
    4.23600m     -3.1880      -2.4548   
    4.24000m     -3.1852      -2.4468   
    4.24400m     -3.1824      -2.4389   
    4.24800m     -3.1796      -2.4310   
    4.25200m     -3.1759      -2.4225   
    4.25600m     -3.1712      -2.4134   
    4.26000m     -3.1665      -2.4042   
    4.26400m     -3.1617      -2.3951   
    4.26800m     -3.1570      -2.3860   
    4.27200m     -3.1523      -2.3769   
    4.27600m     -3.1476      -2.3677   
    4.28000m     -3.1429      -2.3586   
    4.28400m     -3.1382      -2.3495   
    4.28800m     -3.1329      -2.3398   
    4.29200m     -3.1276      -2.3300   
    4.29600m     -3.1223      -2.3202   
    4.30000m     -3.1170      -2.3104   
    4.30400m     -3.1117      -2.3006   
    4.30800m     -3.1064      -2.2908   
    4.31200m     -3.1011      -2.2810   
    4.31600m     -3.0958      -2.2713   
    4.32000m     -3.0905      -2.2615   
    4.32400m     -3.0852      -2.2517   
    4.32800m     -3.0799      -2.2419   
    4.33200m     -3.0746      -2.2321   
    4.33600m     -3.0693      -2.2223   
    4.34000m     -3.0640      -2.2125   
    4.34400m     -3.0565      -2.2013   
    4.34800m     -3.0491      -2.1902   
    4.35200m     -3.0416      -2.1790   
    4.35600m     -3.0342      -2.1678   
    4.36000m     -3.0267      -2.1566   
    4.36400m     -3.0193      -2.1454   
    4.36800m     -3.0118      -2.1342   
    4.37200m     -3.0044      -2.1230   
    4.37600m     -2.9969      -2.1118   
    4.38000m     -2.9895      -2.1007   
    4.38400m     -2.9820      -2.0895   
    4.38800m     -2.9746      -2.0783   
    4.39200m     -2.9671      -2.0671   
    4.39600m     -2.9597      -2.0559   
    4.40000m     -2.9522      -2.0447   
    4.40400m     -2.9448      -2.0335   
    4.40800m     -2.9373      -2.0223   
    4.41200m     -2.9299      -2.0112   
    4.41600m     -2.9224      -2.0000   
    4.42000m     -2.9149      -1.9888   
    4.42400m     -2.9075      -1.9776   
    4.42800m     -2.9000      -1.9664   
    4.43200m     -2.8926      -1.9552   
    4.43600m     -2.8851      -1.9440   
    4.44000m     -2.8777      -1.9328   
    4.44400m     -2.8702      -1.9217   
    4.44800m     -2.8628      -1.9105   
    4.45200m     -2.8553      -1.8993   
    4.45600m     -2.8479      -1.8881   
    4.46000m     -2.8404      -1.8769   
    4.46400m     -2.8330      -1.8657   
    4.46800m     -2.8255      -1.8545   
    4.47200m     -2.8181      -1.8433   
    4.47600m     -2.8106      -1.8322   
    4.48000m     -2.8032      -1.8210   
    4.48400m     -2.7957      -1.8098   
    4.48800m     -2.7883      -1.7986   
    4.49200m     -2.7808      -1.7874   
    4.49600m     -2.7713      -1.7750   
    4.50000m     -2.7610      -1.7621   
    4.50400m     -2.7507      -1.7492   
    4.50800m     -2.7404      -1.7363   
    4.51200m     -2.7301      -1.7234   
    4.51600m     -2.7197      -1.7105   
    4.52000m     -2.7094      -1.6976   
    4.52400m     -2.6991      -1.6846   
    4.52800m     -2.6888      -1.6717   
    4.53200m     -2.6785      -1.6588   
    4.53600m     -2.6682      -1.6459   
    4.54000m     -2.6579      -1.6330   
    4.54400m     -2.6476      -1.6201   
    4.54800m     -2.6373      -1.6072   
    4.55200m     -2.6270      -1.5943   
    4.55600m     -2.6166      -1.5814   
    4.56000m     -2.6063      -1.5685   
    4.56400m     -2.5960      -1.5556   
    4.56800m     -2.5857      -1.5427   
    4.57200m     -2.5754      -1.5298   
    4.57600m     -2.5651      -1.5169   
    4.58000m     -2.5548      -1.5040   
    4.58400m     -2.5445      -1.4911   
    4.58800m     -2.5342      -1.4782   
    4.59200m     -2.5239      -1.4653   
    4.59600m     -2.5135      -1.4524   
    4.60000m     -2.5032      -1.4395   
    4.60400m     -2.4929      -1.4266   
    4.60800m     -2.4826      -1.4137   
    4.61200m     -2.4723      -1.4007   
    4.61600m     -2.4620      -1.3878   
    4.62000m     -2.4517      -1.3749   
    4.62400m     -2.4414      -1.3620   
    4.62800m     -2.4311      -1.3491   
    4.63200m     -2.4208      -1.3362   
    4.63600m     -2.4104      -1.3233   
    4.64000m     -2.4001      -1.3104   
    4.64400m     -2.3898      -1.2975   
    4.64800m     -2.3777      -1.2836   
    4.65200m     -2.3644      -1.2692   
    4.65600m     -2.3512      -1.2548   
    4.66000m     -2.3380      -1.2404   
    4.66400m     -2.3247      -1.2259   
    4.66800m     -2.3115      -1.2115   
    4.67200m     -2.2983      -1.1971   
    4.67600m     -2.2850      -1.1827   
    4.68000m     -2.2718      -1.1683   
    4.68400m     -2.2586      -1.1538   
    4.68800m     -2.2453      -1.1394   
    4.69200m     -2.2321      -1.1250   
    4.69600m     -2.2189      -1.1106   
    4.70000m     -2.2056      -1.0961   
    4.70400m     -2.1924      -1.0817   
    4.70800m     -2.1792      -1.0673   
    4.71200m     -2.1659      -1.0529   
    4.71600m     -2.1527      -1.0384   
    4.72000m     -2.1394      -1.0240   
    4.72400m     -2.1262      -1.0096   
    4.72800m     -2.1130    -995.1664m  
    4.73200m     -2.0997    -980.7425m  
    4.73600m     -2.0865    -966.3185m  
    4.74000m     -2.0733    -951.8946m  
    4.74400m     -2.0600    -937.4706m  
    4.74800m     -2.0468    -923.0467m  
    4.75200m     -2.0336    -908.6227m  
    4.75600m     -2.0203    -894.1987m  
    4.76000m     -2.0071    -879.7748m  
    4.76400m     -1.9939    -865.3508m  
    4.76800m     -1.9806    -850.9269m  
    4.77200m     -1.9674    -836.5029m  
    4.77600m     -1.9542    -822.0789m  
    4.78000m     -1.9409    -807.6550m  
    4.78400m     -1.9277    -793.2310m  
    4.78800m     -1.9145    -778.8071m  
    4.79200m     -1.9012    -764.3831m  
    4.79600m     -1.8880    -749.9592m  
    4.80000m     -1.8748    -735.5352m  
    4.80400m     -1.8615    -721.1112m  
    4.80800m     -1.8483    -706.6873m  
    4.81200m     -1.8351    -692.2633m  
    4.81600m     -1.8218    -677.8394m  
    4.82000m     -1.8086    -663.4154m  
    4.82400m     -1.7954    -648.9914m  
    4.82800m     -1.7821    -634.5675m  
    4.83200m     -1.7689    -620.1435m  
    4.83600m     -1.7557    -605.7196m  
    4.84000m     -1.7424    -591.2956m  
    4.84400m     -1.7292    -576.8717m  
    4.84800m     -1.7160    -562.4477m  
    4.85200m     -1.7027    -548.0237m  
    4.85600m     -1.6895    -533.5998m  
    4.86000m     -1.6763    -519.1758m  
    4.86400m     -1.6630    -504.7519m  
    4.86800m     -1.6498    -490.3279m  
    4.87200m     -1.6366    -475.9039m  
    4.87600m     -1.6233    -461.4800m  
    4.88000m     -1.6101    -447.0560m  
    4.88400m     -1.5969    -432.6321m  
    4.88800m     -1.5836    -418.2081m  
    4.89200m     -1.5704    -403.7842m  
    4.89600m     -1.5571    -389.3602m  
    4.90000m     -1.5439    -374.9362m  
    4.90400m     -1.5307    -360.5123m  
    4.90800m     -1.5173    -346.0563m  
    4.91200m     -1.5021    -331.0103m  
    4.91600m     -1.4868    -315.9644m  
    4.92000m     -1.4715    -300.9185m  
    4.92400m     -1.4562    -285.8726m  
    4.92800m     -1.4409    -270.8266m  
    4.93200m     -1.4256    -255.7807m  
    4.93600m     -1.4104    -240.7348m  
    4.94000m     -1.3951    -225.6889m  
    4.94400m     -1.3798    -210.6429m  
    4.94800m     -1.3645    -195.5970m  
    4.95200m     -1.3492    -180.5511m  
    4.95600m     -1.3339    -165.5052m  
    4.96000m     -1.3187    -150.4592m  
    4.96400m     -1.3034    -135.4133m  
    4.96800m     -1.2881    -120.3674m  
    4.97200m     -1.2728    -105.3215m  
    4.97600m     -1.2575     -90.2755m  
    4.98000m     -1.2422     -75.2296m  
    4.98400m     -1.2270     -60.1837m  
    4.98800m     -1.2117     -45.1378m  
    4.99200m     -1.1964     -30.0918m  
    4.99600m     -1.1811     -15.0459m  
    5.00000m     -1.1658       0.       
    5.00400m     -1.1495      14.9996m  
    5.00800m     -1.1332      29.9992m  
    5.01200m     -1.1169      44.9988m  
    5.01600m     -1.1005      59.9983m  
    5.02000m     -1.0842      74.9979m  
    5.02400m     -1.0679      89.9975m  
    5.02800m     -1.0516     104.9971m  
    5.03200m     -1.0352     119.9967m  
    5.03600m     -1.0189     134.9963m  
    5.04000m     -1.0026     149.9958m  
    5.04400m   -986.2789m    164.9954m  
    5.04800m   -969.9559m    179.9950m  
    5.05200m   -953.6329m    194.9946m  
    5.05600m   -937.3100m    209.9942m  
    5.06000m   -920.9870m    224.9938m  
    5.06400m   -904.6641m    239.9933m  
    5.06800m   -888.3411m    254.9929m  
    5.07200m   -872.0181m    269.9925m  
    5.07600m   -855.6952m    284.9921m  
    5.08000m   -839.3722m    299.9917m  
    5.08400m   -823.0493m    314.9913m  
    5.08800m   -806.7263m    329.9908m  
    5.09200m   -790.4033m    344.9904m  
    5.09600m   -774.0804m    359.9900m  
    5.10000m   -757.7574m    374.9896m  
    5.10400m   -741.4344m    389.9892m  
    5.10800m   -725.1115m    404.9888m  
    5.11200m   -708.7885m    419.9883m  
    5.11600m   -692.4656m    434.9879m  
    5.12000m   -676.1426m    449.9875m  
    5.12400m   -659.8196m    464.9871m  
    5.12800m   -643.4967m    479.9867m  
    5.13200m   -627.1737m    494.9863m  
    5.13600m   -610.8508m    509.9858m  
    5.14000m   -594.5278m    524.9854m  
    5.14400m   -578.1617m    539.8651m  
    5.14800m   -561.7457m    554.6062m  
    5.15200m   -545.3298m    569.3473m  
    5.15600m   -528.9139m    584.0885m  
    5.16000m   -512.4979m    598.8296m  
    5.16400m   -496.0820m    613.5707m  
    5.16800m   -479.6660m    628.3118m  
    5.17200m   -463.2501m    643.0530m  
    5.17600m   -446.8342m    657.7941m  
    5.18000m   -430.4182m    672.5352m  
    5.18400m   -414.0023m    687.2764m  
    5.18800m   -397.5863m    702.0175m  
    5.19200m   -381.1704m    716.7586m  
    5.19600m   -364.7032m    731.2594m  
    5.20000m   -348.1596m    745.4022m  
    5.20400m   -331.6161m    759.5450m  
    5.20800m   -315.0725m    773.6878m  
    5.21200m   -298.5290m    787.8306m  
    5.21600m   -281.9854m    801.9734m  
    5.22000m   -265.4418m    816.1161m  
    5.22400m   -248.8983m    830.2589m  
    5.22800m   -232.3547m    844.4017m  
    5.23200m   -215.8111m    858.5445m  
    5.23600m   -199.2676m    872.6873m  
    5.24000m   -182.7240m    886.8301m  
    5.24400m   -166.1805m    900.9729m  
    5.24800m   -149.6369m    915.1157m  
    5.25200m   -133.0933m    929.2585m  
    5.25600m   -116.5498m    943.4012m  
    5.26000m   -100.0062m    957.5440m  
    5.26400m    -83.4626m    971.6868m  
    5.26800m    -66.9191m    985.8296m  
    5.27200m    -50.3755m    999.9724m  
    5.27600m    -33.8320m      1.0141   
    5.28000m    -17.2884m      1.0283   
    5.28400m   -744.8368u      1.0424   
    5.28800m     15.7987m      1.0565   
    5.29200m     32.3423m      1.0707   
    5.29600m     48.8858m      1.0848   
    5.30000m     65.4294m      1.0990   
    5.30400m     81.9730m      1.1131   
    5.30800m     98.5165m      1.1273   
    5.31200m    115.0601m      1.1414   
    5.31600m    131.6037m      1.1555   
    5.32000m    148.1472m      1.1697   
    5.32400m    164.6908m      1.1838   
    5.32800m    181.2343m      1.1980   
    5.33200m    197.7779m      1.2121   
    5.33600m    214.3215m      1.2263   
    5.34000m    230.8650m      1.2404   
    5.34400m    247.4086m      1.2545   
    5.34800m    263.9522m      1.2687   
    5.35200m    280.4957m      1.2828   
    5.35600m    297.0393m      1.2970   
    5.36000m    313.5828m      1.3111   
    5.36400m    329.8122m      1.3242   
    5.36800m    345.8337m      1.3366   
    5.37200m    361.8552m      1.3490   
    5.37600m    377.8767m      1.3614   
    5.38000m    393.8981m      1.3739   
    5.38400m    409.9196m      1.3863   
    5.38800m    425.9411m      1.3987   
    5.39200m    441.9626m      1.4111   
    5.39600m    457.9841m      1.4235   
    5.40000m    474.0056m      1.4359   
    5.40400m    490.0271m      1.4483   
    5.40800m    506.0486m      1.4607   
    5.41200m    522.0701m      1.4731   
    5.41600m    538.0916m      1.4855   
    5.42000m    554.1131m      1.4979   
    5.42400m    570.1346m      1.5104   
    5.42800m    586.1561m      1.5228   
    5.43200m    602.1776m      1.5352   
    5.43600m    618.1991m      1.5476   
    5.44000m    634.2206m      1.5600   
    5.44400m    650.2421m      1.5724   
    5.44800m    666.2636m      1.5848   
    5.45200m    682.2851m      1.5972   
    5.45600m    698.3066m      1.6096   
    5.46000m    714.3281m      1.6220   
    5.46400m    730.3496m      1.6344   
    5.46800m    746.3711m      1.6469   
    5.47200m    762.3926m      1.6593   
    5.47600m    778.4141m      1.6717   
    5.48000m    794.4356m      1.6841   
    5.48400m    810.4571m      1.6965   
    5.48800m    826.4786m      1.7089   
    5.49200m    842.5001m      1.7213   
    5.49600m    858.5216m      1.7337   
    5.50000m    874.5431m      1.7461   
    5.50400m    890.5646m      1.7585   
    5.50800m    906.5861m      1.7710   
    5.51200m    922.6075m      1.7834   
    5.51600m    938.6290m      1.7958   
    5.52000m    954.6505m      1.8082   
    5.52400m    970.6720m      1.8206   
    5.52800m    986.6935m      1.8330   
    5.53200m      1.0027       1.8454   
    5.53600m      1.0187       1.8578   
    5.54000m      1.0348       1.8702   
    5.54400m      1.0508       1.8826   
    5.54800m      1.0668       1.8950   
    5.55200m      1.0828       1.9075   
    5.55600m      1.0988       1.9199   
    5.56000m      1.1149       1.9323   
    5.56400m      1.1309       1.9447   
    5.56800m      1.1469       1.9571   
    5.57200m      1.1629       1.9695   
    5.57600m      1.1790       1.9819   
    5.58000m      1.1950       1.9943   
    5.58400m      1.2110       2.0067   
    5.58800m      1.2270       2.0191   
    5.59200m      1.2430       2.0315   
    5.59600m      1.2578       2.0416   
    5.60000m      1.2725       2.0516   
    5.60400m      1.2872       2.0616   
    5.60800m      1.3019       2.0716   
    5.61200m      1.3166       2.0816   
    5.61600m      1.3313       2.0916   
    5.62000m      1.3460       2.1016   
    5.62400m      1.3607       2.1117   
    5.62800m      1.3754       2.1217   
    5.63200m      1.3901       2.1317   
    5.63600m      1.4048       2.1417   
    5.64000m      1.4196       2.1517   
    5.64400m      1.4343       2.1617   
    5.64800m      1.4490       2.1717   
    5.65200m      1.4637       2.1817   
    5.65600m      1.4784       2.1918   
    5.66000m      1.4931       2.2018   
    5.66400m      1.5078       2.2118   
    5.66800m      1.5225       2.2218   
    5.67200m      1.5372       2.2318   
    5.67600m      1.5519       2.2418   
    5.68000m      1.5667       2.2518   
    5.68400m      1.5814       2.2618   
    5.68800m      1.5961       2.2719   
    5.69200m      1.6108       2.2819   
    5.69600m      1.6255       2.2919   
    5.70000m      1.6402       2.3019   
    5.70400m      1.6549       2.3119   
    5.70800m      1.6696       2.3219   
    5.71200m      1.6843       2.3319   
    5.71600m      1.6990       2.3419   
    5.72000m      1.7137       2.3520   
    5.72400m      1.7285       2.3620   
    5.72800m      1.7432       2.3720   
    5.73200m      1.7579       2.3820   
    5.73600m      1.7726       2.3920   
    5.74000m      1.7873       2.4020   
    5.74400m      1.8020       2.4120   
    5.74800m      1.8167       2.4220   
    5.75200m      1.8302       2.4310   
    5.75600m      1.8426       2.4389   
    5.76000m      1.8550       2.4468   
    5.76400m      1.8673       2.4548   
    5.76800m      1.8797       2.4627   
    5.77200m      1.8920       2.4706   
    5.77600m      1.9044       2.4785   
    5.78000m      1.9167       2.4864   
    5.78400m      1.9291       2.4944   
    5.78800m      1.9414       2.5023   
    5.79200m      1.9538       2.5102   
    5.79600m      1.9662       2.5181   
    5.80000m      1.9785       2.5260   
    5.80400m      1.9909       2.5340   
    5.80800m      2.0032       2.5419   
    5.81200m      2.0156       2.5498   
    5.81600m      2.0279       2.5577   
    5.82000m      2.0403       2.5656   
    5.82400m      2.0526       2.5736   
    5.82800m      2.0650       2.5815   
    5.83200m      2.0774       2.5894   
    5.83600m      2.0897       2.5973   
    5.84000m      2.1021       2.6052   
    5.84400m      2.1144       2.6131   
    5.84800m      2.1268       2.6211   
    5.85200m      2.1391       2.6290   
    5.85600m      2.1515       2.6369   
    5.86000m      2.1638       2.6448   
    5.86400m      2.1762       2.6527   
    5.86800m      2.1885       2.6607   
    5.87200m      2.2007       2.6676   
    5.87600m      2.2128       2.6742   
    5.88000m      2.2249       2.6809   
    5.88400m      2.2370       2.6875   
    5.88800m      2.2490       2.6941   
    5.89200m      2.2611       2.7007   
    5.89600m      2.2732       2.7073   
    5.90000m      2.2853       2.7139   
    5.90400m      2.2974       2.7205   
    5.90800m      2.3094       2.7271   
    5.91200m      2.3206       2.7326   
    5.91600m      2.3315       2.7378   
    5.92000m      2.3423       2.7429   
    5.92400m      2.3532       2.7480   
    5.92800m      2.3640       2.7532   
    5.93200m      2.3749       2.7583   
    5.93600m      2.3858       2.7635   
    5.94000m      2.3966       2.7686   
    5.94400m      2.4075       2.7737   
    5.94800m      2.4183       2.7789   
    5.95200m      2.4292       2.7840   
    5.95600m      2.4400       2.7892   
    5.96000m      2.4509       2.7943   
    5.96400m      2.4618       2.7995   
    5.96800m      2.4726       2.8046   
    5.97200m      2.4835       2.8097   
    5.97600m      2.4943       2.8149   
    5.98000m      2.5052       2.8200   
    5.98400m      2.5160       2.8252   
    5.98800m      2.5269       2.8303   
    5.99200m      2.5378       2.8354   
    5.99600m      2.5486       2.8406   
    6.00000m      2.5595       2.8457   
    6.00400m      2.5703       2.8509   
    6.00800m      2.5812       2.8560   
    6.01200m      2.5920       2.8611   
    6.01600m      2.6029       2.8663   
    6.02000m      2.6138       2.8714   
    6.02400m      2.6246       2.8766   
    6.02800m      2.6355       2.8817   
    6.03200m      2.6463       2.8869   
    6.03600m      2.6572       2.8920   
    6.04000m      2.6663       2.8951   
    6.04400m      2.6750       2.8978   
    6.04800m      2.6837       2.9006   
    6.05200m      2.6925       2.9033   
    6.05600m      2.7012       2.9060   
    6.06000m      2.7100       2.9087   
    6.06400m      2.7187       2.9115   
    6.06800m      2.7275       2.9142   
    6.07200m      2.7362       2.9169   
    6.07600m      2.7450       2.9197   
    6.08000m      2.7537       2.9224   
    6.08400m      2.7625       2.9251   
    6.08800m      2.7712       2.9278   
    6.09200m      2.7800       2.9306   
    6.09600m      2.7887       2.9333   
    6.10000m      2.7974       2.9360   
    6.10400m      2.8062       2.9387   
    6.10800m      2.8149       2.9415   
    6.11200m      2.8237       2.9442   
    6.11600m      2.8324       2.9469   
    6.12000m      2.8412       2.9497   
    6.12400m      2.8499       2.9524   
    6.12800m      2.8587       2.9551   
    6.13200m      2.8674       2.9578   
    6.13600m      2.8762       2.9606   
    6.14000m      2.8849       2.9633   
    6.14400m      2.8937       2.9660   
    6.14800m      2.9024       2.9688   
    6.15200m      2.9111       2.9715   
    6.15600m      2.9199       2.9742   
    6.16000m      2.9286       2.9769   
    6.16400m      2.9374       2.9797   
    6.16800m      2.9461       2.9824   
    6.17200m      2.9549       2.9851   
    6.17600m      2.9624       2.9866   
    6.18000m      2.9693       2.9873   
    6.18400m      2.9762       2.9880   
    6.18800m      2.9830       2.9888   
    6.19200m      2.9899       2.9895   
    6.19600m      2.9967       2.9902   
    6.20000m      3.0036       2.9909   
    6.20400m      3.0105       2.9917   
    6.20800m      3.0173       2.9924   
    6.21200m      3.0242       2.9931   
    6.21600m      3.0310       2.9938   
    6.22000m      3.0379       2.9946   
    6.22400m      3.0447       2.9953   
    6.22800m      3.0516       2.9960   
    6.23200m      3.0585       2.9967   
    6.23600m      3.0653       2.9975   
    6.24000m      3.0722       2.9982   
    6.24400m      3.0790       2.9989   
    6.24800m      3.0859       2.9996   
    6.25200m      3.0921       2.9999   
    6.25600m      3.0976       2.9996   
    6.26000m      3.1031       2.9993   
    6.26400m      3.1086       2.9990   
    6.26800m      3.1141       2.9987   
    6.27200m      3.1196       2.9984   
    6.27600m      3.1251       2.9981   
    6.28000m      3.1306       2.9978   
    6.28400m      3.1356       2.9968   
    6.28800m      3.1405       2.9957   
    6.29200m      3.1453       2.9946   
    6.29600m      3.1502       2.9934   
    6.30000m      3.1551       2.9923   
    6.30400m      3.1600       2.9912   
    6.30800m      3.1649       2.9900   
    6.31200m      3.1698       2.9889   
    6.31600m      3.1747       2.9878   
    6.32000m      3.1795       2.9866   
    6.32400m      3.1844       2.9855   
    6.32800m      3.1893       2.9844   
    6.33200m      3.1942       2.9832   
    6.33600m      3.1991       2.9821   
    6.34000m      3.2035       2.9805   
    6.34400m      3.2062       2.9775   
    6.34800m      3.2089       2.9745   
    6.35200m      3.2116       2.9714   
    6.35600m      3.2143       2.9684   
    6.36000m      3.2170       2.9653   
    6.36400m      3.2197       2.9623   
    6.36800m      3.2224       2.9593   
    6.37200m      3.2251       2.9562   
    6.37600m      3.2278       2.9532   
    6.38000m      3.2304       2.9502   
    6.38400m      3.2331       2.9471   
    6.38800m      3.2358       2.9441   
    6.39200m      3.2385       2.9410   
    6.39600m      3.2412       2.9380   
    6.40000m      3.2439       2.9350   
    6.40400m      3.2466       2.9319   
    6.40800m      3.2493       2.9289   
    6.41200m      3.2520       2.9258   
    6.41600m      3.2547       2.9228   
    6.42000m      3.2574       2.9198   
    6.42400m      3.2601       2.9167   
    6.42800m      3.2628       2.9137   
    6.43200m      3.2655       2.9106   
    6.43600m      3.2682       2.9076   
    6.44000m      3.2708       2.9046   
    6.44400m      3.2735       2.9015   
    6.44800m      3.2762       2.8985   
    6.45200m      3.2789       2.8954   
    6.45600m      3.2816       2.8924   
    6.46000m      3.2843       2.8894   
    6.46400m      3.2870       2.8863   
    6.46800m      3.2897       2.8833   
    6.47200m      3.2924       2.8802   
    6.47600m      3.2951       2.8772   
    6.48000m      3.2978       2.8742   
    6.48400m      3.3005       2.8711   
    6.48800m      3.3003       2.8656   
    6.49200m      3.2998       2.8599   
    6.49600m      3.2993       2.8542   
    6.50000m      3.2988       2.8485   
    6.50400m      3.2983       2.8427   
    6.50800m      3.2978       2.8370   
    6.51200m      3.2973       2.8313   
    6.51600m      3.2969       2.8256   
    6.52000m      3.2964       2.8199   
    6.52400m      3.2959       2.8141   
    6.52800m      3.2954       2.8084   
    6.53200m      3.2949       2.8027   
    6.53600m      3.2944       2.7970   
    6.54000m      3.2939       2.7913   
    6.54400m      3.2935       2.7855   
    6.54800m      3.2930       2.7798   
    6.55200m      3.2925       2.7741   
    6.55600m      3.2920       2.7684   
    6.56000m      3.2915       2.7627   
    6.56400m      3.2910       2.7569   
    6.56800m      3.2905       2.7512   
    6.57200m      3.2900       2.7455   
    6.57600m      3.2896       2.7398   
    6.58000m      3.2891       2.7341   
    6.58400m      3.2886       2.7283   
    6.58800m      3.2881       2.7226   
    6.59200m      3.2876       2.7169   
    6.59600m      3.2871       2.7112   
    6.60000m      3.2866       2.7055   
    6.60400m      3.2862       2.6998   
    6.60800m      3.2857       2.6940   
    6.61200m      3.2852       2.6883   
    6.61600m      3.2847       2.6826   
    6.62000m      3.2842       2.6769   
    6.62400m      3.2837       2.6712   
    6.62800m      3.2832       2.6654   
    6.63200m      3.2827       2.6597   
    6.63600m      3.2821       2.6539   
    6.64000m      3.2789       2.6459   
    6.64400m      3.2756       2.6380   
    6.64800m      3.2724       2.6300   
    6.65200m      3.2691       2.6221   
    6.65600m      3.2659       2.6141   
    6.66000m      3.2626       2.6061   
    6.66400m      3.2594       2.5982   
    6.66800m      3.2561       2.5902   
    6.67200m      3.2529       2.5823   
    6.67600m      3.2496       2.5743   
    6.68000m      3.2464       2.5663   
    6.68400m      3.2431       2.5584   
    6.68800m      3.2399       2.5504   
    6.69200m      3.2366       2.5425   
    6.69600m      3.2334       2.5345   
    6.70000m      3.2301       2.5265   
    6.70400m      3.2269       2.5186   
    6.70800m      3.2236       2.5106   
    6.71200m      3.2204       2.5027   
    6.71600m      3.2171       2.4947   
    6.72000m      3.2138       2.4867   
    6.72400m      3.2106       2.4788   
    6.72800m      3.2073       2.4708   
    6.73200m      3.2041       2.4629   
    6.73600m      3.2008       2.4549   
    6.74000m      3.1976       2.4470   
    6.74400m      3.1943       2.4390   
    6.74800m      3.1911       2.4310   
    6.75200m      3.1868       2.4225   
    6.75600m      3.1816       2.4133   
    6.76000m      3.1764       2.4041   
    6.76400m      3.1711       2.3949   
    6.76800m      3.1659       2.3858   
    6.77200m      3.1606       2.3766   
    6.77600m      3.1554       2.3674   
    6.78000m      3.1502       2.3582   
    6.78400m      3.1449       2.3491   
    6.78800m      3.1397       2.3399   
    6.79200m      3.1343       2.3306   
    6.79600m      3.1286       2.3207   
    6.80000m      3.1228       2.3108   
    6.80400m      3.1170       2.3010   
    6.80800m      3.1113       2.2911   
    6.81200m      3.1055       2.2813   
    6.81600m      3.0997       2.2714   
    6.82000m      3.0940       2.2615   
    6.82400m      3.0882       2.2517   
    6.82800m      3.0824       2.2418   
    6.83200m      3.0767       2.2320   
    6.83600m      3.0709       2.2221   
    6.84000m      3.0652       2.2122   
    6.84400m      3.0591       2.2022   
    6.84800m      3.0514       2.1909   
    6.85200m      3.0436       2.1797   
    6.85600m      3.0359       2.1685   
    6.86000m      3.0281       2.1572   
    6.86400m      3.0204       2.1460   
    6.86800m      3.0126       2.1348   
    6.87200m      3.0049       2.1235   
    6.87600m      2.9971       2.1123   
    6.88000m      2.9894       2.1010   
    6.88400m      2.9816       2.0898   
    6.88800m      2.9739       2.0786   
    6.89200m      2.9661       2.0673   
    6.89600m      2.9584       2.0561   
    6.90000m      2.9506       2.0449   
    6.90400m      2.9429       2.0336   
    6.90800m      2.9351       2.0224   
    6.91200m      2.9274       2.0112   
    6.91600m      2.9196       1.9999   
    6.92000m      2.9119       1.9887   
    6.92400m      2.9041       1.9774   
    6.92800m      2.8964       1.9662   
    6.93200m      2.8886       1.9550   
    6.93600m      2.8809       1.9437   
    6.94000m      2.8731       1.9325   
    6.94400m      2.8654       1.9213   
    6.94800m      2.8576       1.9100   
    6.95200m      2.8499       1.8988   
    6.95600m      2.8421       1.8875   
    6.96000m      2.8344       1.8763   
    6.96400m      2.8266       1.8651   
    6.96800m      2.8189       1.8538   
    6.97200m      2.8111       1.8426   
    6.97600m      2.8034       1.8314   
    6.98000m      2.7956       1.8201   
    6.98400m      2.7879       1.8089   
    6.98800m      2.7801       1.7976   
    6.99200m      2.7724       1.7864   
    6.99600m      2.7646       1.7752   
    7.00000m      2.7553       1.7629   
    7.00400m      2.7448       1.7500   
    7.00800m      2.7344       1.7370   
    7.01200m      2.7240       1.7241   
    7.01600m      2.7135       1.7112   
    7.02000m      2.7031       1.6982   
    7.02400m      2.6927       1.6853   
    7.02800m      2.6822       1.6724   
    7.03200m      2.6718       1.6594   
    7.03600m      2.6614       1.6465   
    7.04000m      2.6510       1.6335   
    7.04400m      2.6405       1.6206   
    7.04800m      2.6301       1.6077   
    7.05200m      2.6197       1.5947   
    7.05600m      2.6092       1.5818   
    7.06000m      2.5988       1.5689   
    7.06400m      2.5884       1.5559   
    7.06800m      2.5779       1.5430   
    7.07200m      2.5675       1.5301   
    7.07600m      2.5571       1.5171   
    7.08000m      2.5466       1.5042   
    7.08400m      2.5362       1.4913   
    7.08800m      2.5258       1.4783   
    7.09200m      2.5153       1.4654   
    7.09600m      2.5049       1.4525   
    7.10000m      2.4945       1.4395   
    7.10400m      2.4840       1.4266   
    7.10800m      2.4736       1.4136   
    7.11200m      2.4632       1.4007   
    7.11600m      2.4527       1.3878   
    7.12000m      2.4423       1.3748   
    7.12400m      2.4319       1.3619   
    7.12800m      2.4214       1.3490   
    7.13200m      2.4110       1.3360   
    7.13600m      2.4006       1.3231   
    7.14000m      2.3902       1.3102   
    7.14400m      2.3797       1.2972   
    7.14800m      2.3687       1.2840   
    7.15200m      2.3555       1.2696   
    7.15600m      2.3422       1.2551   
    7.16000m      2.3290       1.2407   
    7.16400m      2.3157       1.2263   
    7.16800m      2.3024       1.2118   
    7.17200m      2.2892       1.1974   
    7.17600m      2.2759       1.1829   
    7.18000m      2.2626       1.1685   
    7.18400m      2.2494       1.1541   
    7.18800m      2.2361       1.1396   
    7.19200m      2.2229       1.1252   
    7.19600m      2.2096       1.1108   
    7.20000m      2.1963       1.0963   
    7.20400m      2.1831       1.0819   
    7.20800m      2.1698       1.0675   
    7.21200m      2.1566       1.0530   
    7.21600m      2.1433       1.0386   
    7.22000m      2.1300       1.0242   
    7.22400m      2.1168       1.0097   
    7.22800m      2.1035     995.2904m  
    7.23200m      2.0902     980.8550m  
    7.23600m      2.0770     966.4197m  
    7.24000m      2.0637     951.9843m  
    7.24400m      2.0505     937.5490m  
    7.24800m      2.0372     923.1136m  
    7.25200m      2.0239     908.6783m  
    7.25600m      2.0107     894.2429m  
    7.26000m      1.9974     879.8076m  
    7.26400m      1.9842     865.3722m  
    7.26800m      1.9709     850.9369m  
    7.27200m      1.9576     836.5015m  
    7.27600m      1.9444     822.0662m  
    7.28000m      1.9311     807.6308m  
    7.28400m      1.9178     793.1955m  
    7.28800m      1.9046     778.7601m  
    7.29200m      1.8913     764.3248m  
    7.29600m      1.8781     749.8894m  
    7.30000m      1.8648     735.4541m  
    7.30400m      1.8515     721.0187m  
    7.30800m      1.8383     706.5833m  
    7.31200m      1.8250     692.1480m  
    7.31600m      1.8118     677.7126m  
    7.32000m      1.7985     663.2773m  
    7.32400m      1.7852     648.8419m  
    7.32800m      1.7720     634.4066m  
    7.33200m      1.7587     619.9712m  
    7.33600m      1.7454     605.5359m  
    7.34000m      1.7322     591.1005m  
    7.34400m      1.7189     576.6652m  
    7.34800m      1.7057     562.2298m  
    7.35200m      1.6924     547.7945m  
    7.35600m      1.6791     533.3591m  
    7.36000m      1.6659     518.9238m  
    7.36400m      1.6526     504.4884m  
    7.36800m      1.6394     490.0531m  
    7.37200m      1.6261     475.6177m  
    7.37600m      1.6128     461.1824m  
    7.38000m      1.5996     446.7470m  
    7.38400m      1.5863     432.3117m  
    7.38800m      1.5730     417.8763m  
    7.39200m      1.5598     403.4410m  
    7.39600m      1.5465     389.0056m  
    7.40000m      1.5333     374.5703m  
    7.40400m      1.5200     360.1349m  
    7.40800m      1.5067     345.6996m  
    7.41200m      1.4928     331.0553m  
    7.41600m      1.4775     316.0074m  
    7.42000m      1.4623     300.9594m  
    7.42400m      1.4470     285.9114m  
    7.42800m      1.4318     270.8635m  
    7.43200m      1.4165     255.8155m  
    7.43600m      1.4013     240.7675m  
    7.44000m      1.3860     225.7196m  
    7.44400m      1.3707     210.6716m  
    7.44800m      1.3555     195.6236m  
    7.45200m      1.3402     180.5756m  
    7.45600m      1.3250     165.5277m  
    7.46000m      1.3097     150.4797m  
    7.46400m      1.2945     135.4317m  
    7.46800m      1.2792     120.3838m  
    7.47200m      1.2639     105.3358m  
    7.47600m      1.2487      90.2878m  
    7.48000m      1.2334      75.2399m  
    7.48400m      1.2182      60.1919m  
    7.48800m      1.2029      45.1439m  
    7.49200m      1.1877      30.0959m  
    7.49600m      1.1724      15.0480m  
    7.50000m      1.1572       0.       
    7.50400m      1.1409     -14.9986m  
    7.50800m      1.1247     -29.9973m  
    7.51200m      1.1085     -44.9959m  
    7.51600m      1.0922     -59.9946m  
    7.52000m      1.0760     -74.9932m  
    7.52400m      1.0598     -89.9918m  
    7.52800m      1.0436    -104.9905m  
    7.53200m      1.0273    -119.9891m  
    7.53600m      1.0111    -134.9877m  
    7.54000m    994.8800m   -149.9864m  
    7.54400m    978.6530m   -164.9850m  
    7.54800m    962.4260m   -179.9837m  
[...]
   18.24400m     -1.7995      -2.4121   
   18.24800m     -1.8142      -2.4221   
   18.25200m     -1.8277      -2.4310   
   18.25600m     -1.8400      -2.4389   
   18.26000m     -1.8523      -2.4468   
   18.26400m     -1.8646      -2.4547   
   18.26800m     -1.8769      -2.4626   
   18.27200m     -1.8892      -2.4704   
   18.27600m     -1.9015      -2.4783   
   18.28000m     -1.9139      -2.4862   
   18.28400m     -1.9262      -2.4941   
   18.28800m     -1.9385      -2.5020   
   18.29200m     -1.9508      -2.5099   
   18.29600m     -1.9631      -2.5178   
   18.30000m     -1.9754      -2.5257   
   18.30400m     -1.9877      -2.5336   
   18.30800m     -2.0001      -2.5414   
   18.31200m     -2.0124      -2.5493   
   18.31600m     -2.0247      -2.5572   
   18.32000m     -2.0370      -2.5651   
   18.32400m     -2.0493      -2.5730   
   18.32800m     -2.0616      -2.5809   
   18.33200m     -2.0739      -2.5888   
   18.33600m     -2.0862      -2.5967   
   18.34000m     -2.0986      -2.6046   
   18.34400m     -2.1109      -2.6124   
   18.34800m     -2.1232      -2.6203   
   18.35200m     -2.1355      -2.6282   
   18.35600m     -2.1478      -2.6361   
   18.36000m     -2.1601      -2.6440   
   18.36400m     -2.1724      -2.6519   
   18.36800m     -2.1848      -2.6598   
   18.37200m     -2.1971      -2.6677   
   18.37600m     -2.2092      -2.6745   
   18.38000m     -2.2212      -2.6810   
   18.38400m     -2.2332      -2.6876   
   18.38800m     -2.2453      -2.6941   
   18.39200m     -2.2573      -2.7007   
   18.39600m     -2.2694      -2.7072   
   18.40000m     -2.2814      -2.7138   
   18.40400m     -2.2935      -2.7203   
   18.40800m     -2.3055      -2.7269   
   18.41200m     -2.3175      -2.7334   
   18.41600m     -2.3284      -2.7386   
   18.42000m     -2.3393      -2.7437   
   18.42400m     -2.3501      -2.7488   
   18.42800m     -2.3610      -2.7539   
   18.43200m     -2.3718      -2.7590   
   18.43600m     -2.3826      -2.7641   
   18.44000m     -2.3935      -2.7692   
   18.44400m     -2.4043      -2.7743   
   18.44800m     -2.4151      -2.7794   
   18.45200m     -2.4260      -2.7845   
   18.45600m     -2.4368      -2.7896   
   18.46000m     -2.4477      -2.7947   
   18.46400m     -2.4585      -2.7998   
   18.46800m     -2.4693      -2.8049   
   18.47200m     -2.4802      -2.8100   
   18.47600m     -2.4910      -2.8151   
   18.48000m     -2.5018      -2.8202   
   18.48400m     -2.5127      -2.8253   
   18.48800m     -2.5235      -2.8304   
   18.49200m     -2.5344      -2.8355   
   18.49600m     -2.5452      -2.8406   
   18.50000m     -2.5560      -2.8457   
   18.50400m     -2.5669      -2.8508   
   18.50800m     -2.5777      -2.8559   
   18.51200m     -2.5885      -2.8610   
   18.51600m     -2.5994      -2.8660   
   18.52000m     -2.6102      -2.8711   
   18.52400m     -2.6211      -2.8762   
   18.52800m     -2.6319      -2.8813   
   18.53200m     -2.6427      -2.8864   
   18.53600m     -2.6536      -2.8915   
   18.54000m     -2.6635      -2.8956   
   18.54400m     -2.6723      -2.8983   
   18.54800m     -2.6810      -2.9010   
   18.55200m     -2.6897      -2.9037   
   18.55600m     -2.6985      -2.9064   
   18.56000m     -2.7072      -2.9091   
   18.56400m     -2.7160      -2.9118   
   18.56800m     -2.7247      -2.9145   
   18.57200m     -2.7335      -2.9172   
   18.57600m     -2.7422      -2.9199   
   18.58000m     -2.7510      -2.9226   
   18.58400m     -2.7597      -2.9253   
   18.58800m     -2.7685      -2.9279   
   18.59200m     -2.7772      -2.9306   
   18.59600m     -2.7859      -2.9333   
   18.60000m     -2.7947      -2.9360   
   18.60400m     -2.8034      -2.9387   
   18.60800m     -2.8122      -2.9414   
   18.61200m     -2.8209      -2.9441   
   18.61600m     -2.8297      -2.9468   
   18.62000m     -2.8384      -2.9495   
   18.62400m     -2.8472      -2.9522   
   18.62800m     -2.8559      -2.9549   
   18.63200m     -2.8647      -2.9576   
   18.63600m     -2.8734      -2.9603   
   18.64000m     -2.8821      -2.9630   
   18.64400m     -2.8909      -2.9657   
   18.64800m     -2.8996      -2.9684   
   18.65200m     -2.9084      -2.9711   
   18.65600m     -2.9171      -2.9738   
   18.66000m     -2.9259      -2.9765   
   18.66400m     -2.9346      -2.9792   
   18.66800m     -2.9434      -2.9818   
   18.67200m     -2.9521      -2.9845   
   18.67600m     -2.9606      -2.9869   
   18.68000m     -2.9675      -2.9876   
   18.68400m     -2.9743      -2.9883   
   18.68800m     -2.9812      -2.9890   
   18.69200m     -2.9881      -2.9898   
   18.69600m     -2.9950      -2.9905   
   18.70000m     -3.0019      -2.9912   
   18.70400m     -3.0087      -2.9919   
   18.70800m     -3.0156      -2.9926   
   18.71200m     -3.0225      -2.9933   
   18.71600m     -3.0294      -2.9940   
   18.72000m     -3.0363      -2.9947   
   18.72400m     -3.0431      -2.9954   
   18.72800m     -3.0500      -2.9961   
   18.73200m     -3.0569      -2.9968   
   18.73600m     -3.0638      -2.9975   
   18.74000m     -3.0707      -2.9982   
   18.74400m     -3.0776      -2.9989   
   18.74800m     -3.0844      -2.9996   
   18.75200m     -3.0897      -2.9994   
   18.75600m     -3.0934      -2.9983   
   18.76000m     -3.0971      -2.9972   
   18.76400m     -3.1008      -2.9960   
   18.76800m     -3.1045      -2.9949   
   18.77200m     -3.1082      -2.9938   
   18.77600m     -3.1119      -2.9927   
   18.78000m     -3.1156      -2.9915   
   18.78400m     -3.1193      -2.9904   
   18.78800m     -3.1230      -2.9893   
   18.79200m     -3.1267      -2.9881   
   18.79600m     -3.1304      -2.9870   
   18.80000m     -3.1341      -2.9859   
   18.80400m     -3.1378      -2.9848   
   18.80800m     -3.1415      -2.9836   
   18.81200m     -3.1452      -2.9825   
   18.81600m     -3.1489      -2.9814   
   18.82000m     -3.1526      -2.9802   
   18.82400m     -3.1563      -2.9791   
   18.82800m     -3.1600      -2.9780   
   18.83200m     -3.1637      -2.9769   
   18.83600m     -3.1674      -2.9757   
   18.84000m     -3.1711      -2.9746   
   18.84400m     -3.1748      -2.9735   
   18.84800m     -3.1785      -2.9723   
   18.85200m     -3.1822      -2.9712   
   18.85600m     -3.1859      -2.9701   
   18.86000m     -3.1896      -2.9689   
   18.86400m     -3.1933      -2.9678   
   18.86800m     -3.1970      -2.9667   
   18.87200m     -3.2005      -2.9646   
   18.87600m     -3.2038      -2.9621   
   18.88000m     -3.2072      -2.9596   
   18.88400m     -3.2106      -2.9571   
   18.88800m     -3.2140      -2.9545   
   18.89200m     -3.2174      -2.9520   
   18.89600m     -3.2208      -2.9495   
   18.90000m     -3.2238      -2.9466   
   18.90400m     -3.2259      -2.9429   
   18.90800m     -3.2280      -2.9393   
   18.91200m     -3.2301      -2.9356   
   18.91600m     -3.2323      -2.9319   
   18.92000m     -3.2344      -2.9282   
   18.92400m     -3.2365      -2.9246   
   18.92800m     -3.2386      -2.9209   
   18.93200m     -3.2407      -2.9172   
   18.93600m     -3.2428      -2.9135   
   18.94000m     -3.2449      -2.9099   
   18.94400m     -3.2470      -2.9062   
   18.94800m     -3.2491      -2.9025   
   18.95200m     -3.2512      -2.8988   
   18.95600m     -3.2533      -2.8952   
   18.96000m     -3.2554      -2.8915   
   18.96400m     -3.2576      -2.8878   
   18.96800m     -3.2597      -2.8842   
   18.97200m     -3.2618      -2.8805   
   18.97600m     -3.2639      -2.8768   
   18.98000m     -3.2660      -2.8731   
   18.98400m     -3.2681      -2.8695   
   18.98800m     -3.2702      -2.8658   
   18.99200m     -3.2723      -2.8621   
   18.99600m     -3.2728      -2.8570   
   19.00000m     -3.2725      -2.8512   
   19.00400m     -3.2723      -2.8455   
   19.00800m     -3.2721      -2.8397   
   19.01200m     -3.2718      -2.8340   
   19.01600m     -3.2716      -2.8283   
   19.02000m     -3.2714      -2.8225   
   19.02400m     -3.2711      -2.8168   
   19.02800m     -3.2709      -2.8111   
   19.03200m     -3.2707      -2.8053   
   19.03600m     -3.2704      -2.7996   
   19.04000m     -3.2702      -2.7939   
   19.04400m     -3.2700      -2.7881   
   19.04800m     -3.2697      -2.7824   
   19.05200m     -3.2695      -2.7767   
   19.05600m     -3.2693      -2.7709   
   19.06000m     -3.2690      -2.7652   
   19.06400m     -3.2688      -2.7595   
   19.06800m     -3.2686      -2.7537   
   19.07200m     -3.2684      -2.7480   
   19.07600m     -3.2681      -2.7423   
   19.08000m     -3.2679      -2.7365   
   19.08400m     -3.2677      -2.7308   
   19.08800m     -3.2674      -2.7251   
   19.09200m     -3.2672      -2.7193   
   19.09600m     -3.2670      -2.7136   
   19.10000m     -3.2667      -2.7078   
   19.10400m     -3.2665      -2.7021   
   19.10800m     -3.2663      -2.6964   
   19.11200m     -3.2660      -2.6906   
   19.11600m     -3.2658      -2.6849   
   19.12000m     -3.2656      -2.6792   
   19.12400m     -3.2653      -2.6734   
   19.12800m     -3.2651      -2.6677   
   19.13200m     -3.2627      -2.6601   
   19.13600m     -3.2598      -2.6522   
   19.14000m     -3.2570      -2.6443   
   19.14400m     -3.2542      -2.6364   
   19.14800m     -3.2514      -2.6285   
   19.15200m     -3.2486      -2.6206   
   19.15600m     -3.2457      -2.6127   
   19.16000m     -3.2429      -2.6048   
   19.16400m     -3.2401      -2.5969   
   19.16800m     -3.2373      -2.5890   
   19.17200m     -3.2345      -2.5811   
   19.17600m     -3.2316      -2.5732   
   19.18000m     -3.2288      -2.5653   
   19.18400m     -3.2260      -2.5574   
   19.18800m     -3.2232      -2.5495   
   19.19200m     -3.2204      -2.5416   
   19.19600m     -3.2175      -2.5337   
   19.20000m     -3.2147      -2.5258   
   19.20400m     -3.2119      -2.5179   
   19.20800m     -3.2091      -2.5100   
   19.21200m     -3.2063      -2.5021   
   19.21600m     -3.2034      -2.4942   
   19.22000m     -3.2006      -2.4863   
   19.22400m     -3.1978      -2.4784   
   19.22800m     -3.1950      -2.4705   
   19.23200m     -3.1922      -2.4626   
   19.23600m     -3.1893      -2.4547   
   19.24000m     -3.1865      -2.4468   
   19.24400m     -3.1837      -2.4389   
   19.24800m     -3.1809      -2.4310   
   19.25200m     -3.1771      -2.4225   
   19.25600m     -3.1723      -2.4134   
   19.26000m     -3.1676      -2.4042   
   19.26400m     -3.1628      -2.3951   
   19.26800m     -3.1581      -2.3860   
   19.27200m     -3.1533      -2.3769   
   19.27600m     -3.1485      -2.3677   
   19.28000m     -3.1438      -2.3586   
   19.28400m     -3.1390      -2.3495   
   19.28800m     -3.1337      -2.3398   
   19.29200m     -3.1284      -2.3300   
   19.29600m     -3.1230      -2.3202   
   19.30000m     -3.1177      -2.3104   
   19.30400m     -3.1123      -2.3006   
   19.30800m     -3.1070      -2.2908   
   19.31200m     -3.1016      -2.2810   
   19.31600m     -3.0963      -2.2713   
   19.32000m     -3.0909      -2.2615   
   19.32400m     -3.0856      -2.2517   
   19.32800m     -3.0802      -2.2419   
   19.33200m     -3.0749      -2.2321   
   19.33600m     -3.0695      -2.2223   
   19.34000m     -3.0642      -2.2125   
   19.34400m     -3.0567      -2.2013   
   19.34800m     -3.0492      -2.1902   
   19.35200m     -3.0417      -2.1790   
   19.35600m     -3.0342      -2.1678   
   19.36000m     -3.0268      -2.1566   
   19.36400m     -3.0193      -2.1454   
   19.36800m     -3.0118      -2.1342   
   19.37200m     -3.0043      -2.1230   
   19.37600m     -2.9968      -2.1118   
   19.38000m     -2.9893      -2.1006   
   19.38400m     -2.9818      -2.0894   
   19.38800m     -2.9743      -2.0782   
   19.39200m     -2.9668      -2.0670   
   19.39600m     -2.9593      -2.0558   
   19.40000m     -2.9518      -2.0447   
   19.40400m     -2.9444      -2.0335   
   19.40800m     -2.9369      -2.0223   
   19.41200m     -2.9294      -2.0111   
   19.41600m     -2.9219      -1.9999   
   19.42000m     -2.9144      -1.9887   
   19.42400m     -2.9069      -1.9775   
   19.42800m     -2.8994      -1.9663   
   19.43200m     -2.8919      -1.9551   
   19.43600m     -2.8844      -1.9439   
   19.44000m     -2.8769      -1.9327   
   19.44400m     -2.8695      -1.9215   
   19.44800m     -2.8620      -1.9103   
   19.45200m     -2.8545      -1.8991   
   19.45600m     -2.8470      -1.8880   
   19.46000m     -2.8395      -1.8768   
   19.46400m     -2.8320      -1.8656   
   19.46800m     -2.8245      -1.8544   
   19.47200m     -2.8170      -1.8432   
   19.47600m     -2.8095      -1.8320   
   19.48000m     -2.8020      -1.8208   
   19.48400m     -2.7946      -1.8096   
   19.48800m     -2.7871      -1.7984   
   19.49200m     -2.7796      -1.7872   
   19.49600m     -2.7706      -1.7751   
   19.50000m     -2.7603      -1.7622   
   19.50400m     -2.7499      -1.7493   
   19.50800m     -2.7396      -1.7364   
   19.51200m     -2.7292      -1.7235   
   19.51600m     -2.7189      -1.7106   
   19.52000m     -2.7086      -1.6976   
   19.52400m     -2.6982      -1.6847   
   19.52800m     -2.6879      -1.6718   
   19.53200m     -2.6775      -1.6589   
   19.53600m     -2.6672      -1.6460   
   19.54000m     -2.6569      -1.6331   
   19.54400m     -2.6465      -1.6202   
   19.54800m     -2.6362      -1.6072   
   19.55200m     -2.6258      -1.5943   
   19.55600m     -2.6155      -1.5814   
   19.56000m     -2.6051      -1.5685   
   19.56400m     -2.5948      -1.5556   
   19.56800m     -2.5845      -1.5427   
   19.57200m     -2.5741      -1.5298   
   19.57600m     -2.5638      -1.5168   
   19.58000m     -2.5534      -1.5039   
   19.58400m     -2.5431      -1.4910   
   19.58800m     -2.5328      -1.4781   
   19.59200m     -2.5224      -1.4652   
   19.59600m     -2.5121      -1.4523   
   19.60000m     -2.5017      -1.4394   
   19.60400m     -2.4914      -1.4264   
   19.60800m     -2.4811      -1.4135   
   19.61200m     -2.4707      -1.4006   
   19.61600m     -2.4604      -1.3877   
   19.62000m     -2.4500      -1.3748   
   19.62400m     -2.4397      -1.3619   
   19.62800m     -2.4294      -1.3489   
   19.63200m     -2.4190      -1.3360   
   19.63600m     -2.4087      -1.3231   
   19.64000m     -2.3983      -1.3102   
   19.64400m     -2.3880      -1.2973   
   19.64800m     -2.3767      -1.2839   
   19.65200m     -2.3635      -1.2695   
   19.65600m     -2.3503      -1.2550   
   19.66000m     -2.3370      -1.2406   
   19.66400m     -2.3238      -1.2262   
   19.66800m     -2.3105      -1.2118   
   19.67200m     -2.2973      -1.1973   
   19.67600m     -2.2840      -1.1829   
   19.68000m     -2.2708      -1.1685   
   19.68400m     -2.2575      -1.1540   
   19.68800m     -2.2443      -1.1396   
   19.69200m     -2.2310      -1.1252   
   19.69600m     -2.2178      -1.1107   
   19.70000m     -2.2045      -1.0963   
   19.70400m     -2.1913      -1.0819   
   19.70800m     -2.1780      -1.0675   
   19.71200m     -2.1648      -1.0530   
   19.71600m     -2.1515      -1.0386   
   19.72000m     -2.1383      -1.0242   
   19.72400m     -2.1250      -1.0097   
   19.72800m     -2.1118    -995.3051m  
   19.73200m     -2.0985    -980.8750m  
   19.73600m     -2.0853    -966.4450m  
   19.74000m     -2.0720    -952.0149m  
   19.74400m     -2.0588    -937.5849m  
   19.74800m     -2.0455    -923.1548m  
   19.75200m     -2.0323    -908.7248m  
   19.75600m     -2.0190    -894.2947m  
   19.76000m     -2.0058    -879.8647m  
   19.76400m     -1.9925    -865.4346m  
   19.76800m     -1.9793    -851.0046m  
   19.77200m     -1.9660    -836.5745m  
   19.77600m     -1.9528    -822.1445m  
   19.78000m     -1.9395    -807.7144m  
   19.78400m     -1.9263    -793.2844m  
   19.78800m     -1.9130    -778.8543m  
   19.79200m     -1.8998    -764.4243m  
   19.79600m     -1.8865    -749.9942m  
   19.80000m     -1.8733    -735.5642m  
   19.80400m     -1.8600    -721.1341m  
   19.80800m     -1.8468    -706.7041m  
   19.81200m     -1.8335    -692.2740m  
   19.81600m     -1.8203    -677.8440m  
   19.82000m     -1.8070    -663.4139m  
   19.82400m     -1.7938    -648.9839m  
   19.82800m     -1.7805    -634.5538m  
   19.83200m     -1.7673    -620.1238m  
   19.83600m     -1.7540    -605.6937m  
   19.84000m     -1.7408    -591.2637m  
   19.84400m     -1.7275    -576.8336m  
   19.84800m     -1.7143    -562.4036m  
   19.85200m     -1.7011    -547.9735m  
   19.85600m     -1.6878    -533.5435m  
   19.86000m     -1.6746    -519.1134m  
   19.86400m     -1.6613    -504.6834m  
   19.86800m     -1.6481    -490.2533m  
   19.87200m     -1.6348    -475.8233m  
   19.87600m     -1.6216    -461.3932m  
   19.88000m     -1.6083    -446.9632m  
   19.88400m     -1.5951    -432.5331m  
   19.88800m     -1.5818    -418.1031m  
   19.89200m     -1.5686    -403.6730m  
   19.89600m     -1.5553    -389.2430m  
   19.90000m     -1.5421    -374.8129m  
   19.90400m     -1.5288    -360.3829m  
   19.90800m     -1.5156    -345.9528m  
   19.91200m     -1.5007    -331.0261m  
   19.91600m     -1.4854    -315.9794m  
   19.92000m     -1.4701    -300.9328m  
   19.92400m     -1.4549    -285.8862m  
   19.92800m     -1.4396    -270.8395m  
   19.93200m     -1.4243    -255.7929m  
   19.93600m     -1.4090    -240.7462m  
   19.94000m     -1.3937    -225.6996m  
   19.94400m     -1.3785    -210.6530m  
   19.94800m     -1.3632    -195.6063m  
   19.95200m     -1.3479    -180.5597m  
   19.95600m     -1.3326    -165.5130m  
   19.96000m     -1.3174    -150.4664m  
   19.96400m     -1.3021    -135.4198m  
   19.96800m     -1.2868    -120.3731m  
   19.97200m     -1.2715    -105.3265m  
   19.97600m     -1.2562     -90.2798m  
   19.98000m     -1.2410     -75.2332m  
   19.98400m     -1.2257     -60.1866m  
   19.98800m     -1.2104     -45.1399m  
   19.99200m     -1.1951     -30.0933m  
   19.99600m     -1.1799     -15.0466m  
   20.00000m     -1.1646       0.       
y

          ***** job concluded
1****** HSPICE -- F-2011.09-SP1 32-BIT (Nov 18 2011) linux ******               
 ******  
 * example rlc-3

  ******  job statistics summary tnom=  25.000 temp=  25.000 *****
  
  
 ******  Machine Information  ******
 CPU:
 model name	: Intel(R) Xeon(R) CPU           E7440  @ 2.40GHz
 cpu MHz	: 2393.895
  
 OS:
 Linux version 2.6.9-89.ELlargesmp (mockbuild@hs20-bc2-5.build.redhat.com) (gcc 
 version 3.4.6 20060404 (Red Hat 3.4.6-11)) #1 SMP Mon Apr 20 10:43:12 EDT 2009


  ******  HSPICE Threads Information  ******

  Command Line Threads Count :     1
  Available CPU Count        :    16
  Actual Threads Count       :     1


  ******  Circuit Statistics  ******
  # nodes       =       8 # elements   =      11
  # resistors   =       3 # capacitors =       4 # inductors   =       3
  # mutual_inds =       0 # vccs       =       0 # vcvs        =       0
  # cccs        =       0 # ccvs       =       0 # volt_srcs   =       1
  # curr_srcs   =       0 # diodes     =       0 # bjts        =       0
  # jfets       =       0 # mosfets    =       0 # U elements  =       0
  # T elements  =       0 # W elements =       0 # B elements  =       0
  # S elements  =       0 # P elements =       0 # va device   =       0
  # vector_srcs =       0


  ******  Runtime Statistics (seconds)  ******

  analysis           time    # points   tot. iter  conv.iter
  op point           0.00           1           4
  transient          0.01        5001         374         187 rev=        10
  readin             0.00
  errchk             0.00
  setup              0.00
  output             0.01


           peak memory used         87.02 megabytes
           total cpu time            0.02 seconds
           total elapsed time        0.50 seconds
           job started at     18:18:43 12/11/2012
           job ended   at     18:18:44 12/11/2012


 lic: Release hspice token(s) 
